<?xml version="1.0" encoding="UTF-8"?>

<!-- generated on 2025-05-11 10:18:38 by Eclipse SUMO netedit Version 1.23.0
<neteditConfiguration xmlns:xsi="http://www.w3.org/2001/XMLSchema-instance" xsi:noNamespaceSchemaLocation="http://sumo.dlr.de/xsd/neteditConfiguration.xsd">

    <input>
        <sumo-net-file value="/Users/onga/git/-25-KMEA-/sumo_simulation/TestCreazioneRete/reteTrolley.net.xml"/>
    </input>

    <output>
        <output-file value="/Users/onga/git/-25-KMEA-/sumo_simulation/TestCreazioneRete/reteTrolley.net.xml"/>
    </output>

    <processing>
        <offset.disable-normalization value="true"/>
    </processing>

    <junctions>
        <no-internal-links value="false"/>
        <no-turnarounds value="true"/>
    </junctions>

    <pedestrian>
        <walkingareas value="true"/>
    </pedestrian>

    <netedit>
        <new-network value="false"/>
    </netedit>

</neteditConfiguration>
-->

<net version="1.20" junctionCornerDetail="5" walkingareas="true" limitTurnSpeed="5.50" xmlns:xsi="http://www.w3.org/2001/XMLSchema-instance" xsi:noNamespaceSchemaLocation="http://sumo.dlr.de/xsd/net_file.xsd">

    <location netOffset="0.00,0.00" convBoundary="-32.53,-33.15,108.87,34.79" origBoundary="10000000000.00,10000000000.00,-10000000000.00,-10000000000.00" projParameter="!"/>

    <edge id=":J10_0" function="internal">
        <lane id=":J10_0_0" index="0" speed="6.58" length="9.22" shape="-5.17,6.29 -5.42,3.83 -6.43,2.04 -8.20,0.90 -10.73,0.42"/>
        <lane id=":J10_0_1" index="1" speed="7.38" length="11.89" shape="-5.17,6.29 -5.35,2.44 -6.31,-0.36 -8.05,-2.10 -10.57,-2.78"/>
    </edge>
    <edge id=":J10_2" function="internal">
        <lane id=":J10_2_0" index="0" speed="13.89" length="14.60" shape="-5.17,6.29 -5.00,-8.19"/>
        <lane id=":J10_2_1" index="1" speed="13.89" length="14.60" shape="-1.97,6.45 -1.80,-8.27"/>
    </edge>
    <edge id=":J10_4" function="internal">
        <lane id=":J10_4_0" index="0" speed="7.54" length="11.88" shape="-1.97,6.45 -1.44,2.56 -0.29,-0.23 1.50,-1.92 3.91,-2.51"/>
        <lane id=":J10_4_1" index="1" speed="6.74" length="9.30" shape="-1.97,6.45 -1.50,3.96 -0.35,2.17 1.47,1.08 3.96,0.69"/>
    </edge>
    <edge id=":J10_w0" function="walkingarea">
        <lane id=":J10_w0_0" index="0" allow="pedestrian" speed="2.78" length="11.84" width="3.20" shape="3.98,2.29 3.88,-4.11 1.66,-4.55 0.87,-5.13 0.30,-5.95 -0.06,-7.01 -0.20,-8.31 -6.60,-8.15 -6.99,-5.96 -7.52,-5.22 -8.29,-4.71 -9.27,-4.43 -10.49,-4.38 -10.82,2.01 -8.48,2.58 -7.68,3.17 -7.13,3.98 -6.83,4.99 -6.77,6.21 -0.37,6.52 0.20,4.20 0.82,3.38 1.65,2.79 2.71,2.43"/>
    </edge>
    <edge id=":J11_0" function="internal">
        <lane id=":J11_0_0" index="0" speed="6.47" length="9.07" shape="59.06,-8.89 59.23,-6.41 60.16,-4.59 61.86,-3.45 64.31,-2.97"/>
    </edge>
    <edge id=":J11_1" function="internal">
        <lane id=":J11_1_0" index="0" speed="13.89" length="14.60" shape="59.06,-8.89 58.43,5.60"/>
        <lane id=":J11_1_1" index="1" speed="13.89" length="14.60" shape="55.87,-9.13 55.23,5.56"/>
    </edge>
    <edge id=":J11_3" function="internal">
        <lane id=":J11_3_0" index="0" speed="13.89" length="14.61" shape="49.60,-3.23 64.31,-2.97"/>
        <lane id=":J11_3_1" index="1" speed="13.89" length="14.61" shape="49.65,-0.03 64.15,0.23"/>
    </edge>
    <edge id=":J11_5" function="internal">
        <lane id=":J11_5_0" index="0" speed="6.46" length="4.35" shape="49.65,-0.03 52.12,0.28 53.72,1.23"/>
    </edge>
    <edge id=":J11_6" function="internal">
        <lane id=":J11_6_0" index="0" speed="6.46" length="4.72" shape="53.72,1.23 53.87,1.32 54.90,3.08 55.23,5.56"/>
    </edge>
    <edge id=":J11_w0" function="walkingarea">
        <lane id=":J11_w0_0" index="0" allow="pedestrian" speed="2.78" length="11.84" width="3.20" shape="64.07,1.82 64.40,-4.57 62.18,-5.13 61.44,-5.72 60.94,-6.53 60.68,-7.54 60.66,-8.76 54.28,-9.25 53.61,-6.83 52.93,-5.97 52.04,-5.35 50.92,-4.97 49.57,-4.83 49.68,1.57 51.89,1.98 52.66,2.53 53.21,3.31 53.53,4.31 53.63,5.54 60.03,5.62 60.50,3.42 61.06,2.67 61.84,2.15 62.85,1.87"/>
    </edge>
    <edge id=":J12_0" function="internal">
        <lane id=":J12_0_0" index="0" speed="6.09" length="7.35" shape="58.17,28.21 57.86,30.19 57.01,31.63 55.61,32.55 53.65,32.95"/>
        <lane id=":J12_0_1" index="1" speed="3.91" length="2.45" shape="54.97,28.18 54.87,28.83 54.58,29.32 54.11,29.62 53.46,29.75"/>
    </edge>
    <edge id=":J12_w0" function="walkingarea">
        <lane id=":J12_w0_0" index="0" allow="pedestrian" speed="2.78" length="6.55" width="3.20" shape="59.77,28.23 53.37,28.16 53.74,34.55 57.06,33.69 58.23,32.79 59.07,31.58 59.58,30.06"/>
    </edge>
    <edge id=":J13_0" function="internal">
        <lane id=":J13_0_0" index="0" speed="6.07" length="8.36" shape="-1.29,36.18 -3.61,35.98 -5.22,35.08 -6.14,33.47 -6.37,31.16"/>
        <lane id=":J13_0_1" index="1" speed="3.90" length="2.79" shape="-1.48,32.99 -2.25,32.92 -2.79,32.62 -3.10,32.08 -3.17,31.31"/>
    </edge>
    <edge id=":J13_w0" function="walkingarea">
        <lane id=":J13_w0_0" index="0" allow="pedestrian" speed="2.78" length="7.14" width="3.20" shape="-1.20,37.78 -1.57,31.39 -7.96,31.08 -7.87,33.24 -7.36,34.99 -6.44,36.31 -5.11,37.22 -3.36,37.71"/>
    </edge>
    <edge id=":J14_w0" function="walkingarea">
        <lane id=":J14_w0_0" index="0" allow="pedestrian" speed="2.78" length="0.10" width="3.20" shape="-32.70,0.88 -32.37,-5.51"/>
    </edge>
    <edge id=":J15_w0" function="walkingarea">
        <lane id=":J15_w0_0" index="0" allow="pedestrian" speed="2.78" length="0.10" width="3.20" shape="109.03,-2.28 108.70,4.11"/>
    </edge>
    <edge id=":J16_0" function="internal">
        <lane id=":J16_0_0" index="0" speed="6.07" length="8.24" shape="-5.50,-29.62 -5.23,-31.89 -4.29,-33.46 -2.68,-34.34 -0.40,-34.52"/>
        <lane id=":J16_0_1" index="1" speed="3.90" length="2.75" shape="-2.31,-29.70 -2.21,-30.45 -1.90,-30.98 -1.36,-31.27 -0.60,-31.33"/>
    </edge>
    <edge id=":J16_w0" function="walkingarea">
        <lane id=":J16_w0_0" index="0" allow="pedestrian" speed="2.78" length="7.08" width="3.20" shape="-7.10,-29.58 -0.71,-29.73 -0.30,-36.12 -2.43,-36.06 -4.15,-35.59 -5.49,-34.71 -6.42,-33.41 -6.96,-31.70"/>
    </edge>
    <edge id=":J17_0" function="internal">
        <lane id=":J17_0_0" index="0" speed="6.08" length="7.81" shape="55.87,-30.95 57.97,-30.52 59.42,-29.51 60.21,-27.94 60.35,-25.80"/>
        <lane id=":J17_0_1" index="1" speed="3.90" length="2.60" shape="55.67,-27.76 56.37,-27.62 56.85,-27.28 57.12,-26.76 57.16,-26.04"/>
    </edge>
    <edge id=":J17_w0" function="walkingarea">
        <lane id=":J17_w0_0" index="0" allow="pedestrian" speed="2.78" length="6.83" width="3.20" shape="55.97,-32.55 55.57,-26.16 61.95,-25.68 61.51,-29.31 60.70,-30.63 59.51,-31.61 57.94,-32.25"/>
    </edge>

    <edge id="E13" from="J10" to="J11" priority="-1" spreadType="center">
        <lane id="E13_0" index="0" speed="13.89" length="45.70" shape="3.91,-2.51 49.60,-3.23"/>
        <lane id="E13_1" index="1" speed="13.89" length="45.70" shape="3.96,0.69 49.65,-0.03"/>
    </edge>
    <edge id="E14" from="J11" to="J12" priority="-1" spreadType="center">
        <lane id="E14_0" index="0" speed="13.89" length="22.61" shape="58.43,5.60 58.17,28.21"/>
        <lane id="E14_1" index="1" speed="13.89" length="22.61" shape="55.23,5.56 54.97,28.18"/>
    </edge>
    <edge id="E15" from="J12" to="J13" priority="-1" spreadType="center">
        <lane id="E15_0" index="0" speed="13.89" length="55.03" shape="53.65,32.95 -1.29,36.18"/>
        <lane id="E15_1" index="1" speed="13.89" length="55.03" shape="53.46,29.75 -1.48,32.99"/>
    </edge>
    <edge id="E16" from="J13" to="J10" priority="-1" spreadType="center">
        <lane id="E16_0" index="0" speed="13.89" length="24.90" shape="-6.37,31.16 -5.17,6.29"/>
        <lane id="E16_1" index="1" speed="13.89" length="24.90" shape="-3.17,31.31 -1.97,6.45"/>
    </edge>
    <edge id="E17" from="J10" to="J14" priority="-1" spreadType="center">
        <lane id="E17_0" index="0" speed="13.89" length="21.91" shape="-10.73,0.42 -32.62,-0.72"/>
        <lane id="E17_1" index="1" speed="13.89" length="21.91" shape="-10.57,-2.78 -32.45,-3.92"/>
    </edge>
    <edge id="E18" from="J11" to="J15" priority="-1" spreadType="center">
        <lane id="E18_0" index="0" speed="13.89" length="44.69" shape="64.31,-2.97 108.95,-0.68"/>
        <lane id="E18_1" index="1" speed="13.89" length="44.69" shape="64.15,0.23 108.79,2.51"/>
    </edge>
    <edge id="E19" from="J10" to="J16" priority="-1" spreadType="center">
        <lane id="E19_0" index="0" speed="13.89" length="21.44" shape="-5.00,-8.19 -5.50,-29.62"/>
        <lane id="E19_1" index="1" speed="13.89" length="21.44" shape="-1.80,-8.27 -2.31,-29.70"/>
    </edge>
    <edge id="E20" from="J16" to="J17" priority="-1" spreadType="center">
        <lane id="E20_0" index="0" speed="13.89" length="56.39" shape="-0.40,-34.52 55.87,-30.95"/>
        <lane id="E20_1" index="1" speed="13.89" length="56.39" shape="-0.60,-31.33 55.67,-27.76"/>
    </edge>
    <edge id="E21" from="J17" to="J11" priority="-1" spreadType="center">
        <lane id="E21_0" index="0" speed="13.89" length="16.96" shape="60.35,-25.80 59.06,-8.89"/>
        <lane id="E21_1" index="1" speed="13.89" length="16.96" shape="57.16,-26.04 55.87,-9.13"/>
    </edge>

    <junction id="J10" type="priority" x="-3.23" y="-0.80" incLanes="E16_0 E16_1" intLanes=":J10_0_0 :J10_0_1 :J10_2_0 :J10_2_1 :J10_4_0 :J10_4_1" shape="3.98,2.29 3.88,-4.11 1.66,-4.55 0.87,-5.13 0.30,-5.95 -0.06,-7.01 -0.20,-8.31 -6.60,-8.15 -6.99,-5.96 -7.52,-5.22 -8.29,-4.71 -9.27,-4.43 -10.49,-4.38 -10.82,2.01 -8.48,2.58 -7.68,3.17 -7.13,3.98 -6.83,4.99 -6.77,6.21 -0.37,6.52 0.20,4.20 0.82,3.38 1.65,2.79 2.71,2.43">
        <request index="0" response="000000" foes="000000" cont="0"/>
        <request index="1" response="000000" foes="000000" cont="0"/>
        <request index="2" response="000000" foes="000000" cont="0"/>
        <request index="3" response="000000" foes="000000" cont="0"/>
        <request index="4" response="000000" foes="000000" cont="0"/>
        <request index="5" response="000000" foes="000000" cont="0"/>
    </junction>
    <junction id="J11" type="priority" x="56.91" y="-1.75" incLanes="E21_0 E21_1 E13_0 E13_1" intLanes=":J11_0_0 :J11_1_0 :J11_1_1 :J11_3_0 :J11_3_1 :J11_6_0" shape="64.07,1.82 64.40,-4.57 62.18,-5.13 61.44,-5.72 60.94,-6.53 60.68,-7.54 60.66,-8.76 54.28,-9.25 53.61,-6.83 52.93,-5.97 52.04,-5.35 50.92,-4.97 49.57,-4.83 49.68,1.57 51.89,1.98 52.66,2.53 53.21,3.31 53.53,4.31 53.63,5.54 60.03,5.62 60.50,3.42 61.06,2.67 61.84,2.15 62.85,1.87">
        <request index="0" response="000000" foes="011000" cont="0"/>
        <request index="1" response="000000" foes="111000" cont="0"/>
        <request index="2" response="000000" foes="111000" cont="0"/>
        <request index="3" response="000111" foes="000111" cont="0"/>
        <request index="4" response="000111" foes="000111" cont="0"/>
        <request index="5" response="000110" foes="000110" cont="1"/>
    </junction>
    <junction id="J12" type="priority" x="56.53" y="31.18" incLanes="E14_0 E14_1" intLanes=":J12_0_0 :J12_0_1" shape="59.77,28.23 53.37,28.16 53.74,34.55 57.06,33.69 58.23,32.79 59.07,31.58 59.58,30.06">
        <request index="0" response="00" foes="00" cont="0"/>
        <request index="1" response="00" foes="00" cont="0"/>
    </junction>
    <junction id="J13" type="priority" x="-4.94" y="34.79" incLanes="E15_0 E15_1" intLanes=":J13_0_0 :J13_0_1" shape="-1.20,37.78 -1.57,31.39 -7.96,31.08 -7.87,33.24 -7.36,34.99 -6.44,36.31 -5.11,37.22 -3.36,37.71">
        <request index="0" response="00" foes="00" cont="0"/>
        <request index="1" response="00" foes="00" cont="0"/>
    </junction>
    <junction id="J14" type="dead_end" x="-32.53" y="-2.32" incLanes="E17_0 E17_1" intLanes="" shape="-32.70,0.88 -32.37,-5.51"/>
    <junction id="J15" type="dead_end" x="108.87" y="0.92" incLanes="E18_0 E18_1" intLanes="" shape="109.03,-2.28 108.70,4.11"/>
    <junction id="J16" type="priority" x="-3.99" y="-33.15" incLanes="E19_0 E19_1" intLanes=":J16_0_0 :J16_0_1" shape="-7.10,-29.58 -0.71,-29.73 -0.30,-36.12 -2.43,-36.06 -4.15,-35.59 -5.49,-34.71 -6.42,-33.41 -6.96,-31.70">
        <request index="0" response="00" foes="00" cont="0"/>
        <request index="1" response="00" foes="00" cont="0"/>
    </junction>
    <junction id="J17" type="priority" x="59.01" y="-29.15" incLanes="E20_0 E20_1" intLanes=":J17_0_0 :J17_0_1" shape="55.97,-32.55 55.57,-26.16 61.95,-25.68 61.51,-29.31 60.70,-30.63 59.51,-31.61 57.94,-32.25">
        <request index="0" response="00" foes="00" cont="0"/>
        <request index="1" response="00" foes="00" cont="0"/>
    </junction>

    <junction id=":J11_6_0" type="internal" x="53.72" y="1.23" incLanes=":J11_5_0 E21_0 E21_1" intLanes=":J11_1_0 :J11_1_1"/>

    <connection from="E13" to="E18" fromLane="0" toLane="0" via=":J11_3_0" dir="s" state="m"/>
    <connection from="E13" to="E18" fromLane="1" toLane="1" via=":J11_3_1" dir="s" state="m"/>
    <connection from="E13" to="E14" fromLane="1" toLane="1" via=":J11_5_0" dir="l" state="m"/>
    <connection from="E14" to="E15" fromLane="0" toLane="0" via=":J12_0_0" dir="l" state="M"/>
    <connection from="E14" to="E15" fromLane="1" toLane="1" via=":J12_0_1" dir="l" state="M"/>
    <connection from="E15" to="E16" fromLane="0" toLane="0" via=":J13_0_0" dir="l" state="M"/>
    <connection from="E15" to="E16" fromLane="1" toLane="1" via=":J13_0_1" dir="l" state="M"/>
    <connection from="E16" to="E17" fromLane="0" toLane="0" via=":J10_0_0" dir="r" state="M"/>
    <connection from="E16" to="E17" fromLane="0" toLane="1" via=":J10_0_1" dir="r" state="M"/>
    <connection from="E16" to="E19" fromLane="0" toLane="0" via=":J10_2_0" dir="s" state="M"/>
    <connection from="E16" to="E19" fromLane="1" toLane="1" via=":J10_2_1" dir="s" state="M"/>
    <connection from="E16" to="E13" fromLane="1" toLane="0" via=":J10_4_0" dir="l" state="M"/>
    <connection from="E16" to="E13" fromLane="1" toLane="1" via=":J10_4_1" dir="l" state="M"/>
    <connection from="E19" to="E20" fromLane="0" toLane="0" via=":J16_0_0" dir="l" state="M"/>
    <connection from="E19" to="E20" fromLane="1" toLane="1" via=":J16_0_1" dir="l" state="M"/>
    <connection from="E20" to="E21" fromLane="0" toLane="0" via=":J17_0_0" dir="l" state="M"/>
    <connection from="E20" to="E21" fromLane="1" toLane="1" via=":J17_0_1" dir="l" state="M"/>
    <connection from="E21" to="E18" fromLane="0" toLane="0" via=":J11_0_0" dir="r" state="M"/>
    <connection from="E21" to="E14" fromLane="0" toLane="0" via=":J11_1_0" dir="s" state="M"/>
    <connection from="E21" to="E14" fromLane="1" toLane="1" via=":J11_1_1" dir="s" state="M"/>

    <connection from=":J10_0" to="E17" fromLane="0" toLane="0" dir="r" state="M"/>
    <connection from=":J10_0" to="E17" fromLane="1" toLane="1" dir="r" state="M"/>
    <connection from=":J10_2" to="E19" fromLane="0" toLane="0" dir="s" state="M"/>
    <connection from=":J10_2" to="E19" fromLane="1" toLane="1" dir="s" state="M"/>
    <connection from=":J10_4" to="E13" fromLane="0" toLane="0" dir="l" state="M"/>
    <connection from=":J10_4" to="E13" fromLane="1" toLane="1" dir="l" state="M"/>
    <connection from=":J11_0" to="E18" fromLane="0" toLane="0" dir="r" state="M"/>
    <connection from=":J11_1" to="E14" fromLane="0" toLane="0" dir="s" state="M"/>
    <connection from=":J11_1" to="E14" fromLane="1" toLane="1" dir="s" state="M"/>
    <connection from=":J11_3" to="E18" fromLane="0" toLane="0" dir="s" state="M"/>
    <connection from=":J11_3" to="E18" fromLane="1" toLane="1" dir="s" state="M"/>
    <connection from=":J11_5" to="E14" fromLane="0" toLane="1" via=":J11_6_0" dir="l" state="m"/>
    <connection from=":J11_6" to="E14" fromLane="0" toLane="1" dir="l" state="M"/>
    <connection from=":J12_0" to="E15" fromLane="0" toLane="0" dir="l" state="M"/>
    <connection from=":J12_0" to="E15" fromLane="1" toLane="1" dir="l" state="M"/>
    <connection from=":J13_0" to="E16" fromLane="0" toLane="0" dir="l" state="M"/>
    <connection from=":J13_0" to="E16" fromLane="1" toLane="1" dir="l" state="M"/>
    <connection from=":J16_0" to="E20" fromLane="0" toLane="0" dir="l" state="M"/>
    <connection from=":J16_0" to="E20" fromLane="1" toLane="1" dir="l" state="M"/>
    <connection from=":J17_0" to="E21" fromLane="0" toLane="0" dir="l" state="M"/>
    <connection from=":J17_0" to="E21" fromLane="1" toLane="1" dir="l" state="M"/>

    <connection from=":J10_w0" to="E13" fromLane="0" toLane="0" dir="s" state="M"/>
    <connection from=":J10_w0" to="E19" fromLane="0" toLane="0" dir="s" state="M"/>
    <connection from=":J10_w0" to="E17" fromLane="0" toLane="0" dir="s" state="M"/>
    <connection from="E16" to=":J10_w0" fromLane="0" toLane="0" dir="s" state="M"/>
    <connection from=":J11_w0" to="E18" fromLane="0" toLane="0" dir="s" state="M"/>
    <connection from=":J11_w0" to="E14" fromLane="0" toLane="0" dir="s" state="M"/>
    <connection from="E21" to=":J11_w0" fromLane="0" toLane="0" dir="s" state="M"/>
    <connection from="E13" to=":J11_w0" fromLane="0" toLane="0" dir="s" state="M"/>
    <connection from=":J12_w0" to="E15" fromLane="0" toLane="0" dir="s" state="M"/>
    <connection from="E14" to=":J12_w0" fromLane="0" toLane="0" dir="s" state="M"/>
    <connection from=":J13_w0" to="E16" fromLane="0" toLane="0" dir="s" state="M"/>
    <connection from="E15" to=":J13_w0" fromLane="0" toLane="0" dir="s" state="M"/>
    <connection from="E17" to=":J14_w0" fromLane="0" toLane="0" dir="s" state="M"/>
    <connection from="E18" to=":J15_w0" fromLane="0" toLane="0" dir="s" state="M"/>
    <connection from=":J16_w0" to="E20" fromLane="0" toLane="0" dir="s" state="M"/>
    <connection from="E19" to=":J16_w0" fromLane="0" toLane="0" dir="s" state="M"/>
    <connection from=":J17_w0" to="E21" fromLane="0" toLane="0" dir="s" state="M"/>
    <connection from="E20" to=":J17_w0" fromLane="0" toLane="0" dir="s" state="M"/>
</net>
