<?xml version="1.0" encoding="UTF-8"?>

<!-- generated on 2025-05-12 14:23:08 by Eclipse SUMO netedit Version 1.23.0
-->

<routes xmlns:xsi="http://www.w3.org/2001/XMLSchema-instance" xsi:noNamespaceSchemaLocation="http://sumo.dlr.de/xsd/routes_file.xsd">
    
    <!-- Pedestrians (sorted by depart) -->

    <person id="p_0" depart="0.00">
        <personTrip from="-E4" to="E6"/>
    </person>
    <person id="p_1" depart="0.00">
        <personTrip from="-E4" to="E6"/>
    </person>
    <person id="p_2" depart="0.00">
        <personTrip from="-E4" to="E6"/>
    </person>
    
</routes>
