<?xml version="1.0" encoding="UTF-8"?>

<!-- generated on 2025-05-11 15:22:24 by Eclipse SUMO netedit Version 1.23.0
-->

<routes xmlns:xsi="http://www.w3.org/2001/XMLSchema-instance" xsi:noNamespaceSchemaLocation="http://sumo.dlr.de/xsd/routes_file.xsd">
    <!-- Vehicles, persons and containers (sorted by depart) -->
    <trip id="t_2" depart="-0.00" arrivalSpeed="0.00" color="red" from="E3" to="E3"/>

    <trip id="t_0" depart="0.00" from="E0" to="E4" via="E3"/>
    <person id="p_0" depart="0.00">
        <personTrip from="-E4" to="E6"/>
    </person>
</routes>
