<?xml version="1.0" encoding="UTF-8"?>

<!-- generated on 2025-05-11 14:45:06 by Eclipse SUMO netedit Version 1.23.0
-->

<additional xmlns:xsi="http://www.w3.org/2001/XMLSchema-instance" xsi:noNamespaceSchemaLocation="http://sumo.dlr.de/xsd/additional_file.xsd">
    <!-- Shapes -->
    <poly id="po_0" color="red" fill="0" layer="0.00" shape="17.472170,0.898861 17.472170,-1.595332 21.159237,-1.486889 21.087425,0.875407 17.476683,0.875407"/>
    <poly id="po_1" color="red" fill="0" layer="0.00" shape="18.943547,0.665855 18.943547,-1.832650 23.070109,0.665855 23.102348,-1.929366 18.879069,-1.816530 18.927428,0.649736 23.037871,0.633616"/>
</additional>
