<?xml version="1.0" encoding="UTF-8"?>
<!-- generated on 2020-10-16 13:59:12.656933 by randomTrips.py UNKNOWN
  options: -n test.net.xml -p 50 <doubleminus>fringe-factor 100 -o cars2.rou.xml
-->
<routes xmlns:xsi="http://www.w3.org/2001/XMLSchema-instance" xsi:noNamespaceSchemaLocation="http://sumo.dlr.de/xsd/routes_file.xsd">
    <vType id="special" jmTimegapMinor="0" jmIgnoreFoeProb="0.5" jmCrossingGap="0">
        <param key="has.driverstate.device" value="true"/>
        <param key="initialAwareness" value="0.1"/>
    </vType>
    <trip type="special" id="0" depart="0.00" from="gneE17" to="-gneE17"/>
    <trip type="special" id="1" depart="50.00" from="-gneE3" to="-gneE17"/>
    <trip type="special" id="2" depart="100.00" from="gneE17" to="gneE3"/>
    <trip type="special" id="3" depart="150.00" from="gneE17" to="-gneE17"/>
    <trip type="special" id="4" depart="200.00" from="-gneE3" to="-gneE17"/>
    <trip type="special" id="5" depart="250.00" from="-gneE3" to="gneE3"/>
    <trip type="special" id="6" depart="300.00" from="-gneE3" to="-gneE17"/>
    <trip type="special" id="7" depart="350.00" from="gneE17" to="gneE3"/>
    <trip type="special" id="8" depart="400.00" from="-gneE3" to="gneE3"/>
    <trip type="special" id="9" depart="450.00" from="gneE17" to="-gneE17"/>
    <trip type="special" id="10" depart="500.00" from="gneE17" to="gneE3"/>
    <trip type="special" id="11" depart="550.00" from="-gneE3" to="-gneE17"/>
    <trip type="special" id="12" depart="600.00" from="gneE17" to="-gneE17"/>
    <trip type="special" id="13" depart="650.00" from="-gneE3" to="-gneE17"/>
    <trip type="special" id="14" depart="700.00" from="gneE17" to="gneE3"/>
    <trip type="special" id="15" depart="750.00" from="gneE17" to="gneE3"/>
    <trip type="special" id="16" depart="800.00" from="gneE17" to="gneE3"/>
    <trip type="special" id="17" depart="850.00" from="-gneE3" to="gneE3"/>
    <trip type="special" id="18" depart="900.00" from="gneE17" to="gneE3"/>
    <trip type="special" id="19" depart="950.00" from="gneE17" to="gneE3"/>
    <trip type="special" id="20" depart="1000.00" from="gneE17" to="-gneE17"/>
    <trip type="special" id="21" depart="1050.00" from="-gneE3" to="-gneE17"/>
    <trip type="special" id="22" depart="1100.00" from="-gneE3" to="-gneE17"/>
    <trip type="special" id="23" depart="1150.00" from="-gneE3" to="-gneE17"/>
    <trip type="special" id="24" depart="1200.00" from="gneE17" to="-gneE17"/>
    <trip type="special" id="25" depart="1250.00" from="-gneE3" to="-gneE17"/>
    <trip type="special" id="26" depart="1300.00" from="-gneE3" to="gneE3"/>
    <trip type="special" id="27" depart="1350.00" from="gneE17" to="gneE3"/>
    <trip type="special" id="28" depart="1400.00" from="-gneE3" to="gneE3"/>
    <trip type="special" id="29" depart="1450.00" from="-gneE3" to="-gneE17"/>
    <trip type="special" id="30" depart="1500.00" from="gneE17" to="gneE3"/>
    <trip type="special" id="31" depart="1550.00" from="gneE17" to="gneE3"/>
    <trip type="special" id="32" depart="1600.00" from="gneE17" to="gneE3"/>
    <trip type="special" id="33" depart="1650.00" from="-gneE3" to="-gneE17"/>
    <trip type="special" id="34" depart="1700.00" from="-gneE3" to="-gneE17"/>
    <trip type="special" id="35" depart="1750.00" from="-gneE3" to="gneE3"/>
    <trip type="special" id="36" depart="1800.00" from="gneE17" to="-gneE17"/>
    <trip type="special" id="37" depart="1850.00" from="gneE17" to="-gneE17"/>
    <trip type="special" id="38" depart="1900.00" from="gneE17" to="-gneE17"/>
    <trip type="special" id="39" depart="1950.00" from="-gneE3" to="-gneE17"/>
    <trip type="special" id="40" depart="2000.00" from="gneE17" to="-gneE17"/>
    <trip type="special" id="41" depart="2050.00" from="gneE17" to="gneE3"/>
    <trip type="special" id="42" depart="2100.00" from="-gneE3" to="-gneE17"/>
    <trip type="special" id="43" depart="2150.00" from="gneE2" to="gneE3"/>
    <trip type="special" id="44" depart="2200.00" from="-gneE3" to="-gneE17"/>
    <trip type="special" id="45" depart="2250.00" from="-gneE3" to="gneE3"/>
    <trip type="special" id="46" depart="2300.00" from="gneE17" to="-gneE17"/>
    <trip type="special" id="47" depart="2350.00" from="-gneE3" to="-gneE17"/>
    <trip type="special" id="48" depart="2400.00" from="gneE2" to="gneE3"/>
    <trip type="special" id="49" depart="2450.00" from="gneE17" to="gneE3"/>
    <trip type="special" id="50" depart="2500.00" from="-gneE3" to="gneE3"/>
    <trip type="special" id="51" depart="2550.00" from="gneE17" to="gneE3"/>
    <trip type="special" id="52" depart="2600.00" from="-gneE3" to="gneE3"/>
    <trip type="special" id="53" depart="2650.00" from="-gneE3" to="-gneE17"/>
    <trip type="special" id="54" depart="2700.00" from="-gneE3" to="gneE3"/>
    <trip type="special" id="55" depart="2750.00" from="gneE17" to="-gneE17"/>
    <trip type="special" id="56" depart="2800.00" from="gneE17" to="-gneE17"/>
    <trip type="special" id="57" depart="2850.00" from="gneE17" to="gneE3"/>
    <trip type="special" id="58" depart="2900.00" from="-gneE3" to="gneE3"/>
    <trip type="special" id="59" depart="2950.00" from="gneE17" to="-gneE17"/>
    <trip type="special" id="60" depart="3000.00" from="gneE17" to="gneE3"/>
    <trip type="special" id="61" depart="3050.00" from="gneE17" to="gneE3"/>
    <trip type="special" id="62" depart="3100.00" from="-gneE2" to="-gneE17"/>
    <trip type="special" id="63" depart="3150.00" from="-gneE3" to="gneE3"/>
    <trip type="special" id="64" depart="3200.00" from="gneE17" to="gneE3"/>
    <trip type="special" id="65" depart="3250.00" from="-gneE3" to="-gneE17"/>
    <trip type="special" id="66" depart="3300.00" from="gneE17" to="gneE3"/>
    <trip type="special" id="67" depart="3350.00" from="-gneE3" to="-gneE17"/>
    <trip type="special" id="68" depart="3400.00" from="-gneE3" to="gneE3"/>
    <trip type="special" id="69" depart="3450.00" from="gneE17" to="-gneE17"/>
    <trip type="special" id="70" depart="3500.00" from="-gneE3" to="gneE3"/>
    <trip type="special" id="71" depart="3550.00" from="-gneE3" to="gneE3"/>
</routes>
