<?xml version="1.0" encoding="UTF-8"?>

<!-- generated on 2025-05-06 16:24:57.946182 by randomTrips.py UNKNOWN
<configuration>
    <net-file value="test.net.xml"/>
    <output-trip-file value="cars2.rou.xml"/>
    <fringe-factor value="100"/>
    <period value="50.0"/>
</configuration>
-->

<routes xmlns:xsi="http://www.w3.org/2001/XMLSchema-instance" xsi:noNamespaceSchemaLocation="http://sumo.dlr.de/xsd/routes_file.xsd">
    <trip id="0" depart="0.00" from="gneE17" to="-gneE17"/>
    <trip id="1" depart="50.00" from="-gneE3" to="-gneE17"/>
    <trip id="2" depart="100.00" from="gneE17" to="gneE3"/>
    <trip id="3" depart="150.00" from="gneE17" to="-gneE17"/>
    <trip id="4" depart="200.00" from="-gneE3" to="-gneE17"/>
    <trip id="5" depart="250.00" from="-gneE3" to="gneE3"/>
    <trip id="6" depart="300.00" from="-gneE3" to="-gneE17"/>
    <trip id="7" depart="350.00" from="gneE17" to="gneE3"/>
    <trip id="8" depart="400.00" from="-gneE3" to="gneE3"/>
    <trip id="9" depart="450.00" from="gneE17" to="-gneE17"/>
    <trip id="10" depart="500.00" from="gneE17" to="gneE3"/>
    <trip id="11" depart="550.00" from="-gneE3" to="-gneE17"/>
    <trip id="12" depart="600.00" from="gneE17" to="-gneE17"/>
    <trip id="13" depart="650.00" from="-gneE3" to="-gneE17"/>
    <trip id="14" depart="700.00" from="gneE17" to="gneE3"/>
    <trip id="15" depart="750.00" from="gneE17" to="gneE3"/>
    <trip id="16" depart="800.00" from="gneE17" to="gneE3"/>
    <trip id="17" depart="850.00" from="-gneE3" to="gneE3"/>
    <trip id="18" depart="900.00" from="gneE17" to="gneE3"/>
    <trip id="19" depart="950.00" from="gneE17" to="gneE3"/>
    <trip id="20" depart="1000.00" from="gneE17" to="-gneE17"/>
    <trip id="21" depart="1050.00" from="-gneE3" to="-gneE17"/>
    <trip id="22" depart="1100.00" from="-gneE3" to="-gneE17"/>
    <trip id="23" depart="1150.00" from="-gneE3" to="-gneE17"/>
    <trip id="24" depart="1200.00" from="gneE17" to="-gneE17"/>
    <trip id="25" depart="1250.00" from="-gneE3" to="-gneE17"/>
    <trip id="26" depart="1300.00" from="-gneE3" to="gneE3"/>
    <trip id="27" depart="1350.00" from="gneE17" to="gneE3"/>
    <trip id="28" depart="1400.00" from="-gneE3" to="gneE3"/>
    <trip id="29" depart="1450.00" from="-gneE3" to="-gneE17"/>
    <trip id="30" depart="1500.00" from="gneE17" to="gneE3"/>
    <trip id="31" depart="1550.00" from="gneE17" to="gneE3"/>
    <trip id="32" depart="1600.00" from="gneE17" to="gneE3"/>
    <trip id="33" depart="1650.00" from="-gneE3" to="-gneE17"/>
    <trip id="34" depart="1700.00" from="-gneE3" to="-gneE17"/>
    <trip id="35" depart="1750.00" from="-gneE3" to="gneE3"/>
    <trip id="36" depart="1800.00" from="gneE17" to="-gneE17"/>
    <trip id="37" depart="1850.00" from="gneE17" to="-gneE17"/>
    <trip id="38" depart="1900.00" from="gneE17" to="-gneE17"/>
    <trip id="39" depart="1950.00" from="-gneE3" to="-gneE17"/>
    <trip id="40" depart="2000.00" from="gneE17" to="-gneE17"/>
    <trip id="41" depart="2050.00" from="gneE17" to="gneE3"/>
    <trip id="42" depart="2100.00" from="-gneE3" to="-gneE17"/>
    <trip id="43" depart="2150.00" from="gneE2" to="gneE3"/>
    <trip id="44" depart="2200.00" from="-gneE3" to="-gneE17"/>
    <trip id="45" depart="2250.00" from="-gneE3" to="gneE3"/>
    <trip id="46" depart="2300.00" from="gneE17" to="-gneE17"/>
    <trip id="47" depart="2350.00" from="-gneE3" to="-gneE17"/>
    <trip id="48" depart="2400.00" from="gneE2" to="gneE3"/>
    <trip id="49" depart="2450.00" from="gneE17" to="gneE3"/>
    <trip id="50" depart="2500.00" from="-gneE3" to="gneE3"/>
    <trip id="51" depart="2550.00" from="gneE17" to="gneE3"/>
    <trip id="52" depart="2600.00" from="-gneE3" to="gneE3"/>
    <trip id="53" depart="2650.00" from="-gneE3" to="-gneE17"/>
    <trip id="54" depart="2700.00" from="-gneE3" to="gneE3"/>
    <trip id="55" depart="2750.00" from="gneE17" to="-gneE17"/>
    <trip id="56" depart="2800.00" from="gneE17" to="-gneE17"/>
    <trip id="57" depart="2850.00" from="gneE17" to="gneE3"/>
    <trip id="58" depart="2900.00" from="-gneE3" to="gneE3"/>
    <trip id="59" depart="2950.00" from="gneE17" to="-gneE17"/>
    <trip id="60" depart="3000.00" from="gneE17" to="gneE3"/>
    <trip id="61" depart="3050.00" from="gneE17" to="gneE3"/>
    <trip id="62" depart="3100.00" from="-gneE2" to="-gneE17"/>
    <trip id="63" depart="3150.00" from="-gneE3" to="gneE3"/>
    <trip id="64" depart="3200.00" from="gneE17" to="gneE3"/>
    <trip id="65" depart="3250.00" from="-gneE3" to="-gneE17"/>
    <trip id="66" depart="3300.00" from="gneE17" to="gneE3"/>
    <trip id="67" depart="3350.00" from="-gneE3" to="-gneE17"/>
    <trip id="68" depart="3400.00" from="-gneE3" to="gneE3"/>
    <trip id="69" depart="3450.00" from="gneE17" to="-gneE17"/>
    <trip id="70" depart="3500.00" from="-gneE3" to="gneE3"/>
    <trip id="71" depart="3550.00" from="-gneE3" to="gneE3"/>
</routes>
