<?xml version="1.0" encoding="UTF-8"?>
<!-- generated on 2020-10-16 11:35:10.445169 by $Id$
  options: -n test.net.xml -p 5 <doubleminus>fringe-factor 100 -o cars.rou.xml
-->
<routes xmlns:xsi="http://www.w3.org/2001/XMLSchema-instance" xsi:noNamespaceSchemaLocation="http://sumo.dlr.de/xsd/routes_file.xsd">
    <vType id="special" jmCrossingGap="0" emergencyDecel="5.5" collisionMinGapFactor="1"/>
    <trip type="special" id="0" depart="0.00" from="-gneE3" to="gneE3"/>
    <trip type="special" id="1" depart="5.00" from="-gneE3" to="gneE3"/>
    <trip type="special" id="2" depart="10.00" from="-gneE3" to="-gneE17"/>
    <trip type="special" id="3" depart="15.00" from="-gneE3" to="-gneE17"/>
    <trip type="special" id="4" depart="20.00" from="gneE17" to="gneE3"/>
    <trip type="special" id="5" depart="25.00" from="gneE17" to="gneE3"/>
    <trip type="special" id="6" depart="30.00" from="gneE17" to="gneE3"/>
    <trip type="special" id="7" depart="35.00" from="gneE17" to="-gneE17"/>
    <trip type="special" id="8" depart="40.00" from="gneE17" to="-gneE17"/>
    <trip type="special" id="9" depart="45.00" from="gneE17" to="-gneE17"/>
    <trip type="special" id="10" depart="50.00" from="-gneE3" to="-gneE17"/>
    <trip type="special" id="11" depart="55.00" from="-gneE3" to="gneE3"/>
    <trip type="special" id="12" depart="60.00" from="gneE17" to="-gneE17"/>
    <trip type="special" id="13" depart="65.00" from="-gneE3" to="gneE3"/>
    <trip type="special" id="14" depart="70.00" from="-gneE3" to="gneE3"/>
    <trip type="special" id="15" depart="75.00" from="gneE17" to="gneE3"/>
    <trip type="special" id="16" depart="80.00" from="-gneE3" to="gneE3"/>
    <trip type="special" id="17" depart="85.00" from="gneE17" to="-gneE17"/>
    <trip type="special" id="18" depart="90.00" from="-gneE2" to="-gneE17"/>
    <trip type="special" id="19" depart="95.00" from="-gneE3" to="gneE3"/>
    <trip type="special" id="20" depart="100.00" from="-gneE3" to="gneE3"/>
    <trip type="special" id="21" depart="105.00" from="-gneE3" to="gneE3"/>
    <trip type="special" id="22" depart="110.00" from="-gneE3" to="-gneE17"/>
    <trip type="special" id="23" depart="115.00" from="-gneE3" to="gneE3"/>
    <trip type="special" id="24" depart="120.00" from="-gneE3" to="-gneE17"/>
    <trip type="special" id="25" depart="125.00" from="gneE17" to="gneE3"/>
    <trip type="special" id="26" depart="130.00" from="-gneE3" to="-gneE17"/>
    <trip type="special" id="27" depart="135.00" from="-gneE3" to="-gneE17"/>
    <trip type="special" id="28" depart="140.00" from="-gneE3" to="gneE3"/>
    <trip type="special" id="29" depart="145.00" from="gneE17" to="gneE3"/>
    <trip type="special" id="30" depart="150.00" from="gneE17" to="gneE3"/>
    <trip type="special" id="31" depart="155.00" from="gneE17" to="gneE3"/>
    <trip type="special" id="32" depart="160.00" from="gneE17" to="-gneE17"/>
    <trip type="special" id="33" depart="165.00" from="-gneE3" to="gneE3"/>
    <trip type="special" id="34" depart="170.00" from="-gneE3" to="gneE3"/>
    <trip type="special" id="35" depart="175.00" from="-gneE3" to="-gneE17"/>
    <trip type="special" id="36" depart="180.00" from="gneE17" to="-gneE17"/>
    <trip type="special" id="37" depart="185.00" from="-gneE3" to="gneE3"/>
    <trip type="special" id="38" depart="190.00" from="gneE17" to="gneE3"/>
    <trip type="special" id="39" depart="195.00" from="gneE17" to="-gneE17"/>
    <trip type="special" id="40" depart="200.00" from="-gneE3" to="gneE3"/>
    <trip type="special" id="41" depart="205.00" from="-gneE3" to="-gneE17"/>
    <trip type="special" id="42" depart="210.00" from="-gneE3" to="gneE3"/>
    <trip type="special" id="43" depart="215.00" from="gneE17" to="-gneE17"/>
    <trip type="special" id="44" depart="220.00" from="-gneE3" to="gneE3"/>
    <trip type="special" id="45" depart="225.00" from="gneE17" to="gneE3"/>
    <trip type="special" id="46" depart="230.00" from="-gneE3" to="gneE3"/>
    <trip type="special" id="47" depart="235.00" from="gneE17" to="gneE3"/>
    <trip type="special" id="48" depart="240.00" from="-gneE3" to="gneE3"/>
    <trip type="special" id="49" depart="245.00" from="-gneE3" to="-gneE17"/>
    <trip type="special" id="50" depart="250.00" from="gneE17" to="-gneE17"/>
    <trip type="special" id="51" depart="255.00" from="gneE17" to="gneE3"/>
    <trip type="special" id="52" depart="260.00" from="-gneE3" to="gneE3"/>
    <trip type="special" id="53" depart="265.00" from="-gneE3" to="-gneE17"/>
    <trip type="special" id="54" depart="270.00" from="-gneE3" to="gneE3"/>
    <trip type="special" id="55" depart="275.00" from="-gneE3" to="gneE3"/>
    <trip type="special" id="56" depart="280.00" from="-gneE3" to="gneE2"/>
    <trip type="special" id="57" depart="285.00" from="gneE2" to="gneE3"/>
    <trip type="special" id="58" depart="290.00" from="gneE17" to="gneE3"/>
    <trip type="special" id="59" depart="295.00" from="-gneE3" to="gneE3"/>
    <trip type="special" id="60" depart="300.00" from="-gneE3" to="gneE3"/>
    <trip type="special" id="61" depart="305.00" from="gneE17" to="gneE3"/>
    <trip type="special" id="62" depart="310.00" from="gneE17" to="-gneE17"/>
    <trip type="special" id="63" depart="315.00" from="gneE17" to="-gneE17"/>
    <trip type="special" id="64" depart="320.00" from="gneE17" to="gneE3"/>
    <trip type="special" id="65" depart="325.00" from="gneE17" to="-gneE17"/>
    <trip type="special" id="66" depart="330.00" from="-gneE3" to="-gneE17"/>
    <trip type="special" id="67" depart="335.00" from="gneE17" to="-gneE17"/>
    <trip type="special" id="68" depart="340.00" from="gneE17" to="-gneE17"/>
    <trip type="special" id="69" depart="345.00" from="gneE17" to="-gneE17"/>
    <trip type="special" id="70" depart="350.00" from="gneE17" to="-gneE17"/>
    <trip type="special" id="71" depart="355.00" from="-gneE3" to="-gneE17"/>
    <trip type="special" id="72" depart="360.00" from="gneE17" to="-gneE17"/>
    <trip type="special" id="73" depart="365.00" from="-gneE3" to="-gneE17"/>
    <trip type="special" id="74" depart="370.00" from="gneE17" to="-gneE17"/>
    <trip type="special" id="75" depart="375.00" from="gneE2" to="-gneE17"/>
    <trip type="special" id="76" depart="380.00" from="gneE17" to="-gneE17"/>
    <trip type="special" id="77" depart="385.00" from="-gneE3" to="gneE3"/>
    <trip type="special" id="78" depart="390.00" from="gneE17" to="gneE3"/>
    <trip type="special" id="79" depart="395.00" from="-gneE3" to="gneE3"/>
    <trip type="special" id="80" depart="400.00" from="gneE17" to="gneE3"/>
    <trip type="special" id="81" depart="405.00" from="-gneE3" to="-gneE17"/>
    <trip type="special" id="82" depart="410.00" from="-gneE3" to="gneE3"/>
    <trip type="special" id="83" depart="415.00" from="-gneE3" to="gneE3"/>
    <trip type="special" id="84" depart="420.00" from="-gneE3" to="gneE3"/>
    <trip type="special" id="85" depart="425.00" from="-gneE3" to="gneE3"/>
    <trip type="special" id="86" depart="430.00" from="gneE17" to="gneE2"/>
    <trip type="special" id="87" depart="435.00" from="gneE17" to="-gneE17"/>
    <trip type="special" id="88" depart="440.00" from="gneE17" to="gneE3"/>
    <trip type="special" id="89" depart="445.00" from="-gneE3" to="-gneE17"/>
    <trip type="special" id="90" depart="450.00" from="gneE17" to="-gneE17"/>
    <trip type="special" id="91" depart="455.00" from="gneE17" to="-gneE17"/>
    <trip type="special" id="92" depart="460.00" from="-gneE3" to="-gneE17"/>
    <trip type="special" id="93" depart="465.00" from="gneE17" to="-gneE17"/>
    <trip type="special" id="94" depart="470.00" from="gneE17" to="gneE3"/>
    <trip type="special" id="95" depart="475.00" from="-gneE3" to="gneE3"/>
    <trip type="special" id="96" depart="480.00" from="-gneE3" to="-gneE17"/>
    <trip type="special" id="97" depart="485.00" from="-gneE3" to="-gneE17"/>
    <trip type="special" id="98" depart="490.00" from="-gneE3" to="-gneE17"/>
    <trip type="special" id="99" depart="495.00" from="-gneE3" to="gneE3"/>
    <trip type="special" id="100" depart="500.00" from="-gneE3" to="gneE3"/>
    <trip type="special" id="101" depart="505.00" from="-gneE3" to="gneE3"/>
    <trip type="special" id="102" depart="510.00" from="-gneE3" to="-gneE17"/>
    <trip type="special" id="103" depart="515.00" from="gneE17" to="gneE3"/>
    <trip type="special" id="104" depart="520.00" from="-gneE3" to="-gneE17"/>
    <trip type="special" id="105" depart="525.00" from="-gneE3" to="gneE3"/>
    <trip type="special" id="106" depart="530.00" from="gneE17" to="gneE3"/>
    <trip type="special" id="107" depart="535.00" from="-gneE3" to="gneE3"/>
    <trip type="special" id="108" depart="540.00" from="gneE17" to="-gneE17"/>
    <trip type="special" id="109" depart="545.00" from="-gneE3" to="gneE3"/>
    <trip type="special" id="110" depart="550.00" from="-gneE3" to="gneE3"/>
    <trip type="special" id="111" depart="555.00" from="-gneE3" to="-gneE17"/>
    <trip type="special" id="112" depart="560.00" from="-gneE3" to="gneE3"/>
    <trip type="special" id="113" depart="565.00" from="gneE17" to="-gneE17"/>
    <trip type="special" id="114" depart="570.00" from="gneE17" to="-gneE17"/>
    <trip type="special" id="115" depart="575.00" from="-gneE3" to="-gneE17"/>
    <trip type="special" id="116" depart="580.00" from="gneE17" to="gneE3"/>
    <trip type="special" id="117" depart="585.00" from="-gneE3" to="gneE3"/>
    <trip type="special" id="118" depart="590.00" from="-gneE3" to="gneE3"/>
    <trip type="special" id="119" depart="595.00" from="gneE17" to="gneE3"/>
    <trip type="special" id="120" depart="600.00" from="-gneE3" to="-gneE17"/>
    <trip type="special" id="121" depart="605.00" from="-gneE3" to="-gneE17"/>
    <trip type="special" id="122" depart="610.00" from="-gneE3" to="gneE3"/>
    <trip type="special" id="123" depart="615.00" from="gneE17" to="-gneE17"/>
    <trip type="special" id="124" depart="620.00" from="gneE17" to="-gneE17"/>
    <trip type="special" id="125" depart="625.00" from="gneE17" to="-gneE17"/>
    <trip type="special" id="126" depart="630.00" from="gneE17" to="-gneE17"/>
    <trip type="special" id="127" depart="635.00" from="gneE17" to="gneE3"/>
    <trip type="special" id="128" depart="640.00" from="-gneE3" to="-gneE17"/>
    <trip type="special" id="129" depart="645.00" from="gneE17" to="gneE3"/>
    <trip type="special" id="130" depart="650.00" from="gneE17" to="gneE3"/>
    <trip type="special" id="131" depart="655.00" from="gneE17" to="-gneE17"/>
    <trip type="special" id="132" depart="660.00" from="-gneE3" to="gneE3"/>
    <trip type="special" id="133" depart="665.00" from="-gneE3" to="-gneE17"/>
    <trip type="special" id="134" depart="670.00" from="gneE17" to="-gneE17"/>
    <trip type="special" id="135" depart="675.00" from="gneE17" to="-gneE17"/>
    <trip type="special" id="136" depart="680.00" from="gneE17" to="gneE3"/>
    <trip type="special" id="137" depart="685.00" from="-gneE3" to="gneE3"/>
    <trip type="special" id="138" depart="690.00" from="gneE17" to="-gneE17"/>
    <trip type="special" id="139" depart="695.00" from="gneE17" to="-gneE17"/>
    <trip type="special" id="140" depart="700.00" from="gneE17" to="gneE3"/>
    <trip type="special" id="141" depart="705.00" from="-gneE3" to="-gneE17"/>
    <trip type="special" id="142" depart="710.00" from="gneE17" to="-gneE17"/>
    <trip type="special" id="143" depart="715.00" from="-gneE3" to="gneE3"/>
    <trip type="special" id="144" depart="720.00" from="-gneE3" to="-gneE17"/>
    <trip type="special" id="145" depart="725.00" from="-gneE3" to="-gneE17"/>
    <trip type="special" id="146" depart="730.00" from="gneE17" to="-gneE17"/>
    <trip type="special" id="147" depart="735.00" from="gneE17" to="-gneE17"/>
    <trip type="special" id="148" depart="740.00" from="gneE17" to="-gneE17"/>
    <trip type="special" id="149" depart="745.00" from="gneE17" to="gneE3"/>
    <trip type="special" id="150" depart="750.00" from="-gneE3" to="gneE3"/>
    <trip type="special" id="151" depart="755.00" from="-gneE3" to="-gneE17"/>
    <trip type="special" id="152" depart="760.00" from="-gneE3" to="-gneE2"/>
    <trip type="special" id="153" depart="765.00" from="-gneE3" to="-gneE17"/>
    <trip type="special" id="154" depart="770.00" from="-gneE3" to="gneE3"/>
    <trip type="special" id="155" depart="775.00" from="gneE17" to="-gneE17"/>
    <trip type="special" id="156" depart="780.00" from="gneE17" to="gneE3"/>
    <trip type="special" id="157" depart="785.00" from="-gneE3" to="-gneE17"/>
    <trip type="special" id="158" depart="790.00" from="-gneE3" to="gneE3"/>
    <trip type="special" id="159" depart="795.00" from="-gneE3" to="gneE3"/>
    <trip type="special" id="160" depart="800.00" from="-gneE3" to="gneE3"/>
    <trip type="special" id="161" depart="805.00" from="gneE17" to="-gneE17"/>
    <trip type="special" id="162" depart="810.00" from="gneE17" to="gneE3"/>
    <trip type="special" id="163" depart="815.00" from="-gneE3" to="gneE3"/>
    <trip type="special" id="164" depart="820.00" from="-gneE3" to="gneE3"/>
    <trip type="special" id="165" depart="825.00" from="-gneE3" to="gneE3"/>
    <trip type="special" id="166" depart="830.00" from="-gneE3" to="-gneE17"/>
    <trip type="special" id="167" depart="835.00" from="-gneE3" to="-gneE17"/>
    <trip type="special" id="168" depart="840.00" from="-gneE3" to="-gneE17"/>
    <trip type="special" id="169" depart="845.00" from="-gneE2" to="-gneE17"/>
    <trip type="special" id="170" depart="850.00" from="gneE17" to="-gneE17"/>
    <trip type="special" id="171" depart="855.00" from="gneE17" to="gneE3"/>
    <trip type="special" id="172" depart="860.00" from="-gneE3" to="gneE3"/>
    <trip type="special" id="173" depart="865.00" from="-gneE3" to="gneE3"/>
    <trip type="special" id="174" depart="870.00" from="-gneE3" to="-gneE17"/>
    <trip type="special" id="175" depart="875.00" from="-gneE3" to="-gneE17"/>
    <trip type="special" id="176" depart="880.00" from="-gneE3" to="gneE3"/>
    <trip type="special" id="177" depart="885.00" from="-gneE3" to="gneE3"/>
    <trip type="special" id="178" depart="890.00" from="gneE17" to="gneE3"/>
    <trip type="special" id="179" depart="895.00" from="-gneE3" to="-gneE17"/>
    <trip type="special" id="180" depart="900.00" from="-gneE3" to="gneE3"/>
    <trip type="special" id="181" depart="905.00" from="-gneE3" to="-gneE17"/>
    <trip type="special" id="182" depart="910.00" from="-gneE3" to="gneE3"/>
    <trip type="special" id="183" depart="915.00" from="-gneE3" to="-gneE17"/>
    <trip type="special" id="184" depart="920.00" from="gneE17" to="-gneE17"/>
    <trip type="special" id="185" depart="925.00" from="-gneE3" to="-gneE17"/>
    <trip type="special" id="186" depart="930.00" from="gneE17" to="-gneE17"/>
    <trip type="special" id="187" depart="935.00" from="-gneE3" to="-gneE17"/>
    <trip type="special" id="188" depart="940.00" from="gneE17" to="gneE3"/>
    <trip type="special" id="189" depart="945.00" from="gneE17" to="-gneE17"/>
    <trip type="special" id="190" depart="950.00" from="gneE17" to="gneE3"/>
    <trip type="special" id="191" depart="955.00" from="-gneE3" to="gneE3"/>
    <trip type="special" id="192" depart="960.00" from="-gneE3" to="-gneE17"/>
    <trip type="special" id="193" depart="965.00" from="gneE17" to="-gneE17"/>
    <trip type="special" id="194" depart="970.00" from="gneE17" to="gneE3"/>
    <trip type="special" id="195" depart="975.00" from="gneE17" to="gneE3"/>
    <trip type="special" id="196" depart="980.00" from="gneE17" to="gneE3"/>
    <trip type="special" id="197" depart="985.00" from="gneE17" to="gneE3"/>
    <trip type="special" id="198" depart="990.00" from="gneE17" to="-gneE17"/>
    <trip type="special" id="199" depart="995.00" from="gneE17" to="-gneE17"/>
    <trip type="special" id="200" depart="1000.00" from="-gneE3" to="-gneE17"/>
    <trip type="special" id="201" depart="1005.00" from="-gneE3" to="-gneE17"/>
    <trip type="special" id="202" depart="1010.00" from="gneE17" to="-gneE17"/>
    <trip type="special" id="203" depart="1015.00" from="-gneE3" to="gneE3"/>
    <trip type="special" id="204" depart="1020.00" from="gneE17" to="-gneE17"/>
    <trip type="special" id="205" depart="1025.00" from="-gneE3" to="gneE3"/>
    <trip type="special" id="206" depart="1030.00" from="gneE17" to="-gneE17"/>
    <trip type="special" id="207" depart="1035.00" from="gneE17" to="gneE3"/>
    <trip type="special" id="208" depart="1040.00" from="-gneE3" to="-gneE17"/>
    <trip type="special" id="209" depart="1045.00" from="gneE17" to="gneE3"/>
    <trip type="special" id="210" depart="1050.00" from="-gneE3" to="-gneE17"/>
    <trip type="special" id="211" depart="1055.00" from="gneE17" to="gneE3"/>
    <trip type="special" id="212" depart="1060.00" from="-gneE3" to="gneE3"/>
    <trip type="special" id="213" depart="1065.00" from="gneE17" to="-gneE2"/>
    <trip type="special" id="214" depart="1070.00" from="-gneE3" to="-gneE17"/>
    <trip type="special" id="215" depart="1075.00" from="gneE17" to="-gneE17"/>
    <trip type="special" id="216" depart="1080.00" from="gneE17" to="gneE3"/>
    <trip type="special" id="217" depart="1085.00" from="-gneE3" to="-gneE17"/>
    <trip type="special" id="218" depart="1090.00" from="gneE17" to="gneE3"/>
    <trip type="special" id="219" depart="1095.00" from="gneE17" to="gneE3"/>
    <trip type="special" id="220" depart="1100.00" from="-gneE3" to="-gneE17"/>
    <trip type="special" id="221" depart="1105.00" from="-gneE3" to="-gneE17"/>
    <trip type="special" id="222" depart="1110.00" from="gneE2" to="gneE3"/>
    <trip type="special" id="223" depart="1115.00" from="gneE17" to="gneE3"/>
    <trip type="special" id="224" depart="1120.00" from="gneE17" to="-gneE17"/>
    <trip type="special" id="225" depart="1125.00" from="gneE17" to="-gneE17"/>
    <trip type="special" id="226" depart="1130.00" from="gneE17" to="-gneE17"/>
    <trip type="special" id="227" depart="1135.00" from="gneE17" to="gneE3"/>
    <trip type="special" id="228" depart="1140.00" from="-gneE3" to="-gneE17"/>
    <trip type="special" id="229" depart="1145.00" from="-gneE3" to="-gneE17"/>
    <trip type="special" id="230" depart="1150.00" from="-gneE3" to="gneE3"/>
    <trip type="special" id="231" depart="1155.00" from="-gneE3" to="gneE3"/>
    <trip type="special" id="232" depart="1160.00" from="-gneE3" to="gneE3"/>
    <trip type="special" id="233" depart="1165.00" from="gneE17" to="gneE3"/>
    <trip type="special" id="234" depart="1170.00" from="-gneE3" to="gneE3"/>
    <trip type="special" id="235" depart="1175.00" from="-gneE3" to="gneE3"/>
    <trip type="special" id="236" depart="1180.00" from="gneE17" to="gneE3"/>
    <trip type="special" id="237" depart="1185.00" from="-gneE3" to="gneE3"/>
    <trip type="special" id="238" depart="1190.00" from="-gneE3" to="gneE3"/>
    <trip type="special" id="239" depart="1195.00" from="-gneE3" to="-gneE17"/>
    <trip type="special" id="240" depart="1200.00" from="gneE17" to="-gneE17"/>
    <trip type="special" id="241" depart="1205.00" from="-gneE3" to="gneE3"/>
    <trip type="special" id="242" depart="1210.00" from="-gneE3" to="-gneE17"/>
    <trip type="special" id="243" depart="1215.00" from="-gneE3" to="gneE3"/>
    <trip type="special" id="244" depart="1220.00" from="-gneE3" to="-gneE17"/>
    <trip type="special" id="245" depart="1225.00" from="-gneE3" to="-gneE17"/>
    <trip type="special" id="246" depart="1230.00" from="gneE17" to="gneE3"/>
    <trip type="special" id="247" depart="1235.00" from="gneE17" to="gneE3"/>
    <trip type="special" id="248" depart="1240.00" from="gneE17" to="-gneE17"/>
    <trip type="special" id="249" depart="1245.00" from="gneE17" to="gneE3"/>
    <trip type="special" id="250" depart="1250.00" from="gneE17" to="gneE3"/>
    <trip type="special" id="251" depart="1255.00" from="-gneE3" to="-gneE17"/>
    <trip type="special" id="252" depart="1260.00" from="gneE17" to="-gneE17"/>
    <trip type="special" id="253" depart="1265.00" from="gneE17" to="-gneE17"/>
    <trip type="special" id="254" depart="1270.00" from="gneE17" to="gneE3"/>
    <trip type="special" id="255" depart="1275.00" from="gneE17" to="-gneE17"/>
    <trip type="special" id="256" depart="1280.00" from="-gneE3" to="gneE3"/>
    <trip type="special" id="257" depart="1285.00" from="gneE17" to="gneE3"/>
    <trip type="special" id="258" depart="1290.00" from="-gneE3" to="gneE3"/>
    <trip type="special" id="259" depart="1295.00" from="gneE17" to="gneE3"/>
    <trip type="special" id="260" depart="1300.00" from="gneE17" to="gneE3"/>
    <trip type="special" id="261" depart="1305.00" from="-gneE3" to="-gneE17"/>
    <trip type="special" id="262" depart="1310.00" from="gneE17" to="gneE3"/>
    <trip type="special" id="263" depart="1315.00" from="-gneE3" to="-gneE17"/>
    <trip type="special" id="264" depart="1320.00" from="-gneE3" to="-gneE17"/>
    <trip type="special" id="265" depart="1325.00" from="-gneE3" to="gneE3"/>
    <trip type="special" id="266" depart="1330.00" from="-gneE3" to="gneE3"/>
    <trip type="special" id="267" depart="1335.00" from="-gneE3" to="-gneE17"/>
    <trip type="special" id="268" depart="1340.00" from="-gneE3" to="gneE3"/>
    <trip type="special" id="269" depart="1345.00" from="gneE17" to="gneE3"/>
    <trip type="special" id="270" depart="1350.00" from="gneE17" to="-gneE17"/>
    <trip type="special" id="271" depart="1355.00" from="-gneE3" to="-gneE17"/>
    <trip type="special" id="272" depart="1360.00" from="-gneE3" to="gneE3"/>
    <trip type="special" id="273" depart="1365.00" from="-gneE3" to="-gneE17"/>
    <trip type="special" id="274" depart="1370.00" from="-gneE3" to="-gneE17"/>
    <trip type="special" id="275" depart="1375.00" from="gneE17" to="gneE3"/>
    <trip type="special" id="276" depart="1380.00" from="gneE17" to="-gneE17"/>
    <trip type="special" id="277" depart="1385.00" from="gneE17" to="-gneE17"/>
    <trip type="special" id="278" depart="1390.00" from="-gneE3" to="-gneE17"/>
    <trip type="special" id="279" depart="1395.00" from="-gneE3" to="-gneE17"/>
    <trip type="special" id="280" depart="1400.00" from="-gneE3" to="gneE3"/>
    <trip type="special" id="281" depart="1405.00" from="-gneE3" to="gneE3"/>
    <trip type="special" id="282" depart="1410.00" from="gneE17" to="gneE3"/>
    <trip type="special" id="283" depart="1415.00" from="gneE17" to="gneE3"/>
    <trip type="special" id="284" depart="1420.00" from="gneE2" to="-gneE17"/>
    <trip type="special" id="285" depart="1425.00" from="-gneE3" to="gneE3"/>
    <trip type="special" id="286" depart="1430.00" from="-gneE3" to="gneE3"/>
    <trip type="special" id="287" depart="1435.00" from="-gneE3" to="-gneE17"/>
    <trip type="special" id="288" depart="1440.00" from="-gneE3" to="gneE3"/>
    <trip type="special" id="289" depart="1445.00" from="-gneE3" to="gneE3"/>
    <trip type="special" id="290" depart="1450.00" from="gneE17" to="gneE3"/>
    <trip type="special" id="291" depart="1455.00" from="-gneE3" to="gneE3"/>
    <trip type="special" id="292" depart="1460.00" from="gneE17" to="-gneE17"/>
    <trip type="special" id="293" depart="1465.00" from="-gneE3" to="gneE3"/>
    <trip type="special" id="294" depart="1470.00" from="gneE17" to="-gneE17"/>
    <trip type="special" id="295" depart="1475.00" from="-gneE3" to="-gneE17"/>
    <trip type="special" id="296" depart="1480.00" from="-gneE3" to="gneE3"/>
    <trip type="special" id="297" depart="1485.00" from="gneE17" to="-gneE17"/>
    <trip type="special" id="298" depart="1490.00" from="-gneE3" to="gneE3"/>
    <trip type="special" id="299" depart="1495.00" from="-gneE3" to="-gneE17"/>
    <trip type="special" id="300" depart="1500.00" from="gneE17" to="-gneE17"/>
    <trip type="special" id="301" depart="1505.00" from="gneE17" to="gneE3"/>
    <trip type="special" id="302" depart="1510.00" from="gneE17" to="gneE3"/>
    <trip type="special" id="303" depart="1515.00" from="-gneE3" to="gneE3"/>
    <trip type="special" id="304" depart="1520.00" from="gneE17" to="gneE3"/>
    <trip type="special" id="305" depart="1525.00" from="gneE17" to="gneE3"/>
    <trip type="special" id="306" depart="1530.00" from="-gneE3" to="-gneE17"/>
    <trip type="special" id="307" depart="1535.00" from="gneE17" to="gneE3"/>
    <trip type="special" id="308" depart="1540.00" from="-gneE3" to="-gneE17"/>
    <trip type="special" id="309" depart="1545.00" from="-gneE3" to="gneE3"/>
    <trip type="special" id="310" depart="1550.00" from="gneE17" to="gneE3"/>
    <trip type="special" id="311" depart="1555.00" from="-gneE3" to="gneE3"/>
    <trip type="special" id="312" depart="1560.00" from="gneE17" to="gneE3"/>
    <trip type="special" id="313" depart="1565.00" from="-gneE3" to="-gneE17"/>
    <trip type="special" id="314" depart="1570.00" from="gneE17" to="gneE3"/>
    <trip type="special" id="315" depart="1575.00" from="gneE17" to="-gneE17"/>
    <trip type="special" id="316" depart="1580.00" from="gneE17" to="gneE3"/>
    <trip type="special" id="317" depart="1585.00" from="-gneE3" to="gneE3"/>
    <trip type="special" id="318" depart="1590.00" from="-gneE3" to="gneE3"/>
    <trip type="special" id="319" depart="1595.00" from="gneE17" to="-gneE17"/>
    <trip type="special" id="320" depart="1600.00" from="-gneE3" to="gneE3"/>
    <trip type="special" id="321" depart="1605.00" from="-gneE3" to="gneE3"/>
    <trip type="special" id="322" depart="1610.00" from="-gneE3" to="gneE3"/>
    <trip type="special" id="323" depart="1615.00" from="gneE17" to="gneE3"/>
    <trip type="special" id="324" depart="1620.00" from="gneE17" to="-gneE17"/>
    <trip type="special" id="325" depart="1625.00" from="-gneE3" to="gneE3"/>
    <trip type="special" id="326" depart="1630.00" from="-gneE3" to="-gneE17"/>
    <trip type="special" id="327" depart="1635.00" from="gneE17" to="-gneE17"/>
    <trip type="special" id="328" depart="1640.00" from="-gneE3" to="gneE3"/>
    <trip type="special" id="329" depart="1645.00" from="-gneE3" to="-gneE17"/>
    <trip type="special" id="330" depart="1650.00" from="gneE17" to="gneE3"/>
    <trip type="special" id="331" depart="1655.00" from="-gneE3" to="-gneE17"/>
    <trip type="special" id="332" depart="1660.00" from="-gneE3" to="gneE3"/>
    <trip type="special" id="333" depart="1665.00" from="gneE17" to="gneE3"/>
    <trip type="special" id="334" depart="1670.00" from="-gneE3" to="-gneE17"/>
    <trip type="special" id="335" depart="1675.00" from="-gneE3" to="-gneE17"/>
    <trip type="special" id="336" depart="1680.00" from="-gneE3" to="-gneE17"/>
    <trip type="special" id="337" depart="1685.00" from="gneE17" to="gneE3"/>
    <trip type="special" id="338" depart="1690.00" from="-gneE3" to="-gneE17"/>
    <trip type="special" id="339" depart="1695.00" from="-gneE3" to="gneE3"/>
    <trip type="special" id="340" depart="1700.00" from="gneE17" to="gneE3"/>
    <trip type="special" id="341" depart="1705.00" from="-gneE3" to="gneE3"/>
    <trip type="special" id="342" depart="1710.00" from="gneE17" to="-gneE17"/>
    <trip type="special" id="343" depart="1715.00" from="-gneE3" to="-gneE17"/>
    <trip type="special" id="344" depart="1720.00" from="gneE17" to="gneE3"/>
    <trip type="special" id="345" depart="1725.00" from="gneE17" to="-gneE2"/>
    <trip type="special" id="346" depart="1730.00" from="-gneE3" to="-gneE17"/>
    <trip type="special" id="347" depart="1735.00" from="-gneE3" to="gneE3"/>
    <trip type="special" id="348" depart="1740.00" from="-gneE3" to="-gneE17"/>
    <trip type="special" id="349" depart="1745.00" from="gneE17" to="-gneE17"/>
    <trip type="special" id="350" depart="1750.00" from="gneE17" to="-gneE17"/>
    <trip type="special" id="351" depart="1755.00" from="gneE17" to="-gneE17"/>
    <trip type="special" id="352" depart="1760.00" from="gneE17" to="-gneE17"/>
    <trip type="special" id="353" depart="1765.00" from="gneE17" to="-gneE17"/>
    <trip type="special" id="354" depart="1770.00" from="gneE17" to="-gneE17"/>
    <trip type="special" id="355" depart="1775.00" from="gneE17" to="gneE3"/>
    <trip type="special" id="356" depart="1780.00" from="gneE17" to="gneE3"/>
    <trip type="special" id="357" depart="1785.00" from="gneE17" to="gneE3"/>
    <trip type="special" id="358" depart="1790.00" from="gneE17" to="-gneE17"/>
    <trip type="special" id="359" depart="1795.00" from="-gneE3" to="gneE3"/>
    <trip type="special" id="360" depart="1800.00" from="-gneE3" to="gneE3"/>
    <trip type="special" id="361" depart="1805.00" from="gneE17" to="gneE3"/>
    <trip type="special" id="362" depart="1810.00" from="-gneE3" to="-gneE17"/>
    <trip type="special" id="363" depart="1815.00" from="-gneE3" to="-gneE17"/>
    <trip type="special" id="364" depart="1820.00" from="-gneE3" to="gneE3"/>
    <trip type="special" id="365" depart="1825.00" from="-gneE3" to="-gneE17"/>
    <trip type="special" id="366" depart="1830.00" from="-gneE3" to="gneE3"/>
    <trip type="special" id="367" depart="1835.00" from="-gneE3" to="-gneE17"/>
    <trip type="special" id="368" depart="1840.00" from="-gneE3" to="-gneE17"/>
    <trip type="special" id="369" depart="1845.00" from="-gneE3" to="-gneE17"/>
    <trip type="special" id="370" depart="1850.00" from="gneE17" to="-gneE17"/>
    <trip type="special" id="371" depart="1855.00" from="-gneE3" to="gneE3"/>
    <trip type="special" id="372" depart="1860.00" from="gneE17" to="gneE3"/>
    <trip type="special" id="373" depart="1865.00" from="-gneE3" to="-gneE17"/>
    <trip type="special" id="374" depart="1870.00" from="-gneE3" to="-gneE17"/>
    <trip type="special" id="375" depart="1875.00" from="gneE17" to="-gneE17"/>
    <trip type="special" id="376" depart="1880.00" from="gneE17" to="gneE3"/>
    <trip type="special" id="377" depart="1885.00" from="-gneE3" to="-gneE17"/>
    <trip type="special" id="378" depart="1890.00" from="-gneE3" to="-gneE17"/>