<?xml version="1.0" encoding="UTF-8"?>

<!-- generated on 2025-05-21 17:28:14 by Eclipse SUMO netedit Version 1.23.0
<neteditConfiguration xmlns:xsi="http://www.w3.org/2001/XMLSchema-instance" xsi:noNamespaceSchemaLocation="http://sumo.dlr.de/xsd/neteditConfiguration.xsd">

    <input>
        <sumo-net-file value="/Users/onga/git/-25-KMEA-/sumo_simulation/sumo_test/TestCreazioneRete/trolleyNet.net.xml"/>
    </input>

    <output>
        <output-file value="/Users/onga/git/-25-KMEA-/sumo_simulation/sumo_test/TestCreazioneRete/trolleyNet.net.xml"/>
    </output>

    <processing>
        <geometry.min-radius.fix.railways value="false"/>
        <geometry.avoid-overlap value="false"/>
        <geometry.max-grade.fix value="false"/>
        <offset.disable-normalization value="true"/>
        <lefthand value="0"/>
    </processing>

    <junctions>
        <no-internal-links value="false"/>
        <no-turnarounds value="true"/>
        <junctions.corner-detail value="5"/>
        <junctions.limit-turn-speed value="5.50"/>
        <rectangular-lane-cut value="0"/>
    </junctions>

    <pedestrian>
        <walkingareas value="1"/>
    </pedestrian>

</neteditConfiguration>
-->

<net version="1.20" junctionCornerDetail="5" walkingareas="true" limitTurnSpeed="5.50" avoidOverlap="0" xmlns:xsi="http://www.w3.org/2001/XMLSchema-instance" xsi:noNamespaceSchemaLocation="http://sumo.dlr.de/xsd/net_file.xsd">

    <location netOffset="0.00,0.00" convBoundary="-61.29,-26.41,66.12,33.36" origBoundary="-10000000000.00,-10000000000.00,10000000000.00,10000000000.00" projParameter="!"/>
    
    <vTypes>
        <vType id="DEFAULT_PEDTYPE" vClass="pedestrian" length="1.0" width="1.0"/>
    </vTypes>


    <edge id=":J0_w0" function="walkingarea">
        <lane id=":J0_w0_0" index="0" allow="pedestrian" speed="2.78" length="11.60" width="2.00" shape="-61.21,-5.52 -61.19,-7.52 -61.35,6.08 -61.33,4.08"/>
    </edge>
    <edge id=":J1_0" function="internal">
        <lane id=":J1_0_0" index="0" disallow="pedestrian" speed="6.02" length="7.52" shape="-14.05,2.95 -15.63,3.31 -16.77,4.36 -17.46,6.12 -17.70,8.57"/>
    </edge>
    <edge id=":J1_1" function="internal">
        <lane id=":J1_1_0" index="0" disallow="pedestrian" speed="13.89" length="10.58" shape="-14.05,2.95 -24.63,2.92"/>
    </edge>
    <edge id=":J1_2" function="internal">
        <lane id=":J1_2_0" index="0" disallow="pedestrian" speed="8.12" length="2.89" shape="-14.05,2.95 -16.55,1.73 -16.62,1.64"/>
    </edge>
    <edge id=":J1_13" function="internal">
        <lane id=":J1_13_0" index="0" disallow="pedestrian" speed="8.12" length="11.75" shape="-16.62,1.64 -18.75,-1.32 -20.32,-5.24 -20.93,-9.07"/>
    </edge>
    <edge id=":J1_3" function="internal">
        <lane id=":J1_3_0" index="0" disallow="pedestrian" speed="6.01" length="7.54" shape="-17.73,-9.09 -17.49,-6.61 -16.80,-4.85 -15.67,-3.80 -14.09,-3.45"/>
    </edge>
    <edge id=":J1_4" function="internal">
        <lane id=":J1_4_0" index="0" speed="13.89" length="17.66" shape="-17.73,-9.09 -17.70,8.57"/>
    </edge>
    <edge id=":J1_5" function="internal">
        <lane id=":J1_5_0" index="0" disallow="pedestrian" speed="8.08" length="14.69" shape="-17.73,-9.09 -18.30,-5.26 -19.86,-1.34 -22.08,1.71 -24.63,2.92"/>
    </edge>
    <edge id=":J1_6" function="internal">
        <lane id=":J1_6_0" index="0" disallow="pedestrian" speed="5.97" length="7.53" shape="-24.56,-3.48 -22.95,-3.82 -21.82,-4.86 -21.14,-6.61 -20.93,-9.07"/>
    </edge>
    <edge id=":J1_7" function="internal">
        <lane id=":J1_7_0" index="0" disallow="pedestrian" speed="13.89" length="10.49" shape="-24.56,-3.48 -14.09,-3.45"/>
        <lane id=":J1_7_1" index="1" disallow="pedestrian" speed="13.89" length="10.49" shape="-24.59,-0.28 -14.07,-0.25"/>
    </edge>
    <edge id=":J1_9" function="internal">
        <lane id=":J1_9_0" index="0" disallow="pedestrian" speed="7.44" length="3.17" shape="-24.59,-0.28 -22.05,0.59 -21.71,0.93"/>
    </edge>
    <edge id=":J1_14" function="internal">
        <lane id=":J1_14_0" index="0" disallow="pedestrian" speed="7.44" length="8.88" shape="-21.71,0.93 -19.84,2.75 -18.28,5.61 -17.70,8.57"/>
    </edge>
    <edge id=":J1_10" function="internal">
        <lane id=":J1_10_0" index="0" disallow="pedestrian" speed="6.05" length="7.61" shape="-20.90,8.55 -21.12,6.10 -21.82,4.35 -22.99,3.29 -24.63,2.92"/>
    </edge>
    <edge id=":J1_11" function="internal">
        <lane id=":J1_11_0" index="0" speed="13.89" length="17.62" shape="-20.90,8.55 -20.93,-9.07"/>
    </edge>
    <edge id=":J1_12" function="internal">
        <lane id=":J1_12_0" index="0" disallow="pedestrian" speed="7.42" length="11.95" shape="-20.90,8.55 -20.30,5.61 -18.75,2.76 -16.56,0.61 -14.07,-0.25"/>
    </edge>
    <edge id=":J1_w0" function="walkingarea">
        <lane id=":J1_w0_0" index="0" allow="pedestrian" speed="2.78" length="6.42" width="3.20" shape="-24.65,4.52 -24.67,6.52 -22.50,8.54 -19.30,8.56 -16.10,8.58 -14.03,6.55 -14.04,4.55"/>
    </edge>
    <edge id=":J1_w1" function="walkingarea">
        <lane id=":J1_w1_0" index="0" allow="pedestrian" speed="2.78" length="6.32" width="3.20" shape="-14.10,-5.05 -14.11,-7.05 -16.13,-9.10 -19.33,-9.08 -22.53,-9.06 -24.51,-7.08 -24.54,-5.08"/>
    </edge>
    <edge id=":J2_0" function="internal">
        <lane id=":J2_0_0" index="0" speed="6.07" length="7.84" shape="-16.15,34.92 -18.29,34.64 -19.81,33.74 -20.72,32.23 -21.01,30.09"/>
    </edge>
    <edge id=":J2_1" function="internal">
        <lane id=":J2_1_0" index="0" speed="3.90" length="2.61" shape="-17.81,30.11 -17.71,30.82 -17.41,31.33 -16.90,31.63 -16.19,31.72"/>
    </edge>
    <edge id=":J2_w0" function="walkingarea">
        <lane id=":J2_w0_0" index="0" allow="pedestrian" speed="2.78" length="4.28" width="6.40" shape="-16.13,36.52 -16.21,30.12 -22.61,30.08 -21.91,33.70 -21.01,34.95 -19.75,35.84 -18.12,36.36"/>
    </edge>
    <edge id=":J3_0" function="internal">
        <lane id=":J3_0_0" index="0" disallow="pedestrian" speed="8.30" length="15.09" shape="37.31,27.73 36.55,30.58 34.32,32.64 30.62,33.91 25.45,34.38"/>
    </edge>
    <edge id=":J3_1" function="internal">
        <lane id=":J3_1_0" index="0" disallow="pedestrian" speed="5.97" length="7.31" shape="25.40,31.18 27.80,30.94 29.52,30.27 30.56,29.18 30.91,27.67"/>
    </edge>
    <edge id=":J3_w0" function="walkingarea">
        <lane id=":J3_w0_0" index="0" allow="pedestrian" speed="2.78" length="9.59" width="3.20" shape="29.31,27.66 27.31,27.64 25.38,29.58 25.43,32.78 25.47,35.98 40.91,27.76 38.91,27.75"/>
    </edge>
    <edge id=":J4_0" function="internal">
        <lane id=":J4_0_0" index="0" disallow="pedestrian" speed="6.58" length="9.14" shape="43.09,2.60 40.65,2.97 38.91,4.06 37.85,5.86 37.49,8.37"/>
    </edge>
    <edge id=":J4_1" function="internal">
        <lane id=":J4_1_0" index="0" disallow="pedestrian" speed="13.89" length="17.61" shape="43.09,2.60 25.48,2.70"/>
    </edge>
    <edge id=":J4_2" function="internal">
        <lane id=":J4_2_0" index="0" disallow="pedestrian" speed="9.19" length="4.92" shape="43.09,2.60 38.22,1.92"/>
    </edge>
    <edge id=":J4_14" function="internal">
        <lane id=":J4_14_0" index="0" disallow="pedestrian" speed="9.19" length="14.41" shape="38.22,1.92 37.86,1.87 34.16,-0.39 31.97,-4.17 31.30,-9.47"/>
    </edge>
    <edge id=":J4_3" function="internal">
        <lane id=":J4_3_0" index="0" disallow="pedestrian" speed="7.23" length="11.57" shape="34.50,-9.43 35.00,-6.95 36.60,-5.19 39.28,-4.14 43.05,-3.80"/>
    </edge>
    <edge id=":J4_4" function="internal">
        <lane id=":J4_4_0" index="0" disallow="pedestrian" speed="13.89" length="17.96" shape="34.50,-9.43 34.92,-4.11 35.97,-0.53 37.03,3.05 37.49,8.37"/>
        <lane id=":J4_4_1" index="1" disallow="pedestrian" speed="13.89" length="17.96" shape="34.50,-9.43 34.29,8.34"/>
    </edge>
    <edge id=":J4_6" function="internal">
        <lane id=":J4_6_0" index="0" disallow="pedestrian" speed="8.78" length="17.04" shape="34.50,-9.43 33.87,-4.14 32.16,-0.36 29.36,1.92 25.48,2.70"/>
    </edge>
    <edge id=":J4_7" function="internal">
        <lane id=":J4_7_0" index="0" disallow="pedestrian" speed="6.65" length="9.34" shape="25.44,-3.70 27.97,-4.08 29.79,-5.16 30.90,-6.96 31.30,-9.47"/>
    </edge>
    <edge id=":J4_8" function="internal">
        <lane id=":J4_8_0" index="0" disallow="pedestrian" speed="13.89" length="17.61" shape="25.44,-3.70 43.05,-3.80"/>
        <lane id=":J4_8_1" index="1" disallow="pedestrian" speed="13.89" length="17.61" shape="25.46,-0.50 43.07,-0.60"/>
    </edge>
    <edge id=":J4_10" function="internal">
        <lane id=":J4_10_0" index="0" disallow="pedestrian" speed="7.99" length="4.09" shape="25.46,-0.50 29.35,0.03 29.49,0.11"/>
    </edge>
    <edge id=":J4_15" function="internal">
        <lane id=":J4_15_0" index="0" disallow="pedestrian" speed="7.99" length="10.21" shape="29.49,0.11 32.12,1.68 33.76,4.45 34.29,8.34"/>
    </edge>
    <edge id=":J4_11" function="internal">
        <lane id=":J4_11_0" index="0" disallow="pedestrian" speed="6.49" length="9.08" shape="31.09,8.32 30.75,5.84 29.71,4.08 27.95,3.03 25.48,2.70"/>
    </edge>
    <edge id=":J4_12" function="internal">
        <lane id=":J4_12_0" index="0" disallow="pedestrian" speed="13.89" length="17.79" shape="31.09,8.32 31.30,-9.47"/>
    </edge>
    <edge id=":J4_13" function="internal">
        <lane id=":J4_13_0" index="0" disallow="pedestrian" speed="8.72" length="16.88" shape="31.09,8.32 31.86,4.44 34.12,1.66 37.86,-0.02 43.07,-0.60"/>
    </edge>
    <edge id=":J4_c0" function="crossing" crossingEdges="E3">
        <lane id=":J4_c0_0" index="0" allow="pedestrian" speed="2.78" length="6.40" width="4.00" shape="27.47,1.08 27.43,-5.32" outlineShape="25.47,1.10 25.43,-5.30 26.72,-5.43 27.78,-5.78 28.60,-6.37 29.20,-7.18 29.41,-7.79 29.47,1.07 25.47,1.10 29.47,1.07"/>
    </edge>
    <edge id=":J4_c1" function="crossing" crossingEdges="-E3">
        <lane id=":J4_c1_0" index="0" allow="pedestrian" speed="2.78" length="3.20" width="4.00" shape="27.49,4.28 27.47,1.08" outlineShape="25.49,4.30 25.47,1.10 29.47,1.07 25.47,1.10 29.47,1.07 29.49,4.27 29.16,6.38 29.06,6.06 28.50,5.28 27.73,4.73 26.72,4.40"/>
    </edge>
    <edge id=":J4_w0" function="walkingarea">
        <lane id=":J4_w0_0" index="0" allow="pedestrian" speed="2.78" length="4.39" width="2.00" shape="39.09,8.39 41.09,8.40 43.10,6.20 43.09,4.20 41.88,4.32 40.88,4.67 40.11,5.25 39.55,6.07 39.21,7.11"/>
    </edge>
    <edge id=":J4_w1" function="walkingarea">
        <lane id=":J4_w1_0" index="0" allow="pedestrian" speed="2.78" length="6.65" width="2.00" shape="43.05,-5.40 43.04,-7.40 38.10,-9.38 36.10,-9.41 36.28,-8.17 36.85,-7.17 37.81,-6.39 39.16,-5.83 40.91,-5.50"/>
    </edge>
    <edge id=":J4_w2" function="walkingarea">
        <lane id=":J4_w2_0" index="0" allow="pedestrian" speed="2.78" length="3.73" width="4.00" shape="29.70,-9.50 27.70,-9.52 25.42,-7.30 25.43,-5.30 26.72,-5.43 27.78,-5.78 28.60,-6.37 29.20,-7.18 29.56,-8.22"/>
    </edge>
    <edge id=":J4_w3" function="walkingarea">
        <lane id=":J4_w3_0" index="0" allow="pedestrian" speed="2.78" length="3.53" width="4.00" shape="25.49,4.30 25.50,6.30 27.49,8.28 29.49,8.30 29.38,7.07 29.06,6.06 28.50,5.28 27.73,4.73 26.72,4.40"/>
    </edge>
    <edge id=":J4_w4" function="walkingarea">
        <lane id=":J4_w4_0" index="0" allow="pedestrian" speed="2.78" length="0.10" width="4.00" shape="29.47,1.07 25.47,1.10 25.47,1.10 29.47,1.07"/>
    </edge>
    <edge id=":J5_w0" function="walkingarea">
        <lane id=":J5_w0_0" index="0" allow="pedestrian" speed="2.78" length="11.60" width="2.00" shape="66.14,4.08 66.15,6.08 66.08,-7.52 66.09,-5.52"/>
    </edge>
    <edge id=":J6_0" function="internal">
        <lane id=":J6_0_0" index="0" disallow="pedestrian" speed="7.55" length="12.78" shape="25.83,-27.92 29.73,-27.53 32.51,-26.26 34.15,-24.10 34.66,-21.05"/>
    </edge>
    <edge id=":J6_1" function="internal">
        <lane id=":J6_1_0" index="0" disallow="pedestrian" speed="5.95" length="7.54" shape="31.46,-21.09 31.13,-22.70 30.09,-23.85 28.34,-24.52 25.87,-24.72"/>
    </edge>
    <edge id=":J6_w0" function="walkingarea">
        <lane id=":J6_w0_0" index="0" allow="pedestrian" speed="2.78" length="8.17" width="3.20" shape="36.26,-21.02 38.26,-21.00 25.81,-29.52 25.85,-26.32 25.89,-23.12 27.86,-21.14 29.86,-21.11"/>
    </edge>
    <edge id=":J7_0" function="internal">
        <lane id=":J7_0_0" index="0" speed="6.08" length="7.70" shape="-21.01,-22.55 -20.73,-24.64 -19.84,-26.14 -18.36,-27.06 -16.27,-27.38"/>
    </edge>
    <edge id=":J7_1" function="internal">
        <lane id=":J7_1_0" index="0" speed="3.90" length="2.57" shape="-16.23,-24.18 -16.93,-24.07 -17.42,-23.77 -17.72,-23.27 -17.81,-22.57"/>
    </edge>
    <edge id=":J7_w0" function="walkingarea">
        <lane id=":J7_w0_0" index="0" allow="pedestrian" speed="2.78" length="4.25" width="6.40" shape="-22.61,-22.54 -16.21,-22.58 -16.29,-28.98 -19.82,-28.23 -21.05,-27.33 -21.93,-26.08 -22.45,-24.49"/>
    </edge>

    <edge id="-E0" from="J1" to="J0" priority="-1">
        <lane id="-E0_0" index="0" allow="pedestrian" speed="13.89" length="36.68" width="2.00" shape="-24.66,5.52 -61.34,5.08"/>
        <lane id="-E0_1" index="1" disallow="pedestrian" speed="13.89" length="36.68" shape="-24.63,2.92 -61.31,2.48"/>
    </edge>
    <edge id="-E1" from="J2" to="J1" priority="-1">
        <lane id="-E1_0" index="0" speed="13.89" length="21.54" shape="-21.01,30.09 -20.90,8.55"/>
    </edge>
    <edge id="-E2" from="J3" to="J2" priority="-1">
        <lane id="-E2_0" index="0" speed="13.89" length="41.60" shape="25.45,34.38 -16.15,34.92"/>
    </edge>
    <edge id="-E3" from="J4" to="J1" priority="-1" shape="32.75,1.05 -19.26,1.38">
        <lane id="-E3_0" index="0" allow="pedestrian" speed="13.89" length="39.53" width="2.00" shape="25.50,5.30 -14.03,5.55"/>
        <lane id="-E3_1" index="1" disallow="pedestrian" speed="13.89" length="39.53" shape="25.48,2.70 -14.05,2.95"/>
    </edge>
    <edge id="-E4" from="J3" to="J4" priority="-1" shape="32.47,32.69 32.75,1.05">
        <lane id="-E4_0" index="0" allow="pedestrian" speed="13.89" length="19.36" width="2.00" shape="28.31,27.65 28.49,8.29"/>
        <lane id="-E4_1" index="1" disallow="pedestrian" speed="13.89" length="19.36" shape="30.91,27.67 31.09,8.32"/>
    </edge>
    <edge id="-E5" from="J5" to="J4" priority="-1">
        <lane id="-E5_0" index="0" allow="pedestrian" speed="13.89" length="23.04" width="2.00" shape="66.14,5.08 43.10,5.20"/>
        <lane id="-E5_1" index="1" disallow="pedestrian" speed="13.89" length="23.04" shape="66.13,2.48 43.09,2.60"/>
    </edge>
    <edge id="-E6" from="J6" to="J4" priority="-1" shape="33.14,-26.41 32.75,1.05">
        <lane id="-E6_0" index="0" allow="pedestrian" speed="13.89" length="11.62" width="2.00" shape="37.26,-21.01 37.10,-9.39"/>
        <lane id="-E6_1" index="1" disallow="pedestrian" speed="13.89" length="11.62" shape="34.66,-21.05 34.50,-9.43"/>
    </edge>
    <edge id="-E7" from="J7" to="J6" priority="-1">
        <lane id="-E7_0" index="0" speed="13.89" length="42.11" shape="-16.27,-27.38 25.83,-27.92"/>
    </edge>
    <edge id="-E8" from="J1" to="J7" priority="-1">
        <lane id="-E8_0" index="0" speed="13.89" length="13.48" shape="-20.93,-9.07 -21.01,-22.55"/>
    </edge>
    <edge id="E0" from="J0" to="J1" priority="-1">
        <lane id="E0_0" index="0" allow="pedestrian" speed="13.89" length="36.68" width="2.00" shape="-61.20,-6.52 -24.52,-6.08"/>
        <lane id="E0_1" index="1" disallow="pedestrian" speed="13.89" length="36.68" shape="-61.23,-3.92 -24.56,-3.48"/>
        <lane id="E0_2" index="2" disallow="pedestrian" speed="13.89" length="36.68" shape="-61.27,-0.72 -24.59,-0.28"/>
    </edge>
    <edge id="E1" from="J1" to="J2" priority="-1">
        <lane id="E1_0" index="0" speed="13.89" length="21.54" shape="-17.70,8.57 -17.81,30.11"/>
    </edge>
    <edge id="E2" from="J2" to="J3" priority="-1">
        <lane id="E2_0" index="0" speed="13.89" length="41.60" shape="-16.19,31.72 25.40,31.18"/>
    </edge>
    <edge id="E3" from="J1" to="J4" priority="-1" shape="-19.26,1.38 32.75,1.05">
        <lane id="E3_0" index="0" allow="pedestrian" speed="13.89" length="39.53" width="2.00" shape="-14.11,-6.05 25.42,-6.30"/>
        <lane id="E3_1" index="1" disallow="pedestrian" speed="13.89" length="39.53" shape="-14.09,-3.45 25.44,-3.70"/>
        <lane id="E3_2" index="2" disallow="pedestrian" speed="13.89" length="39.53" shape="-14.07,-0.25 25.46,-0.50"/>
    </edge>
    <edge id="E4" from="J4" to="J3" priority="-1" shape="32.75,1.05 32.47,32.69">
        <lane id="E4_0" index="0" allow="pedestrian" speed="13.89" length="19.36" width="2.00" shape="40.09,8.39 39.91,27.75"/>
        <lane id="E4_1" index="1" disallow="pedestrian" speed="13.89" length="19.36" shape="37.49,8.37 37.31,27.73"/>
        <lane id="E4_2" index="2" disallow="pedestrian" speed="13.89" length="19.36" shape="34.29,8.34 34.11,27.70"/>
    </edge>
    <edge id="E5" from="J4" to="J5" priority="-1" shape="32.75,1.05 66.12,0.88">
        <lane id="E5_0" index="0" allow="pedestrian" speed="13.89" length="23.04" width="2.00" shape="43.04,-6.40 66.08,-6.52"/>
        <lane id="E5_1" index="1" disallow="pedestrian" speed="13.89" length="23.04" shape="43.05,-3.80 66.10,-3.92"/>
        <lane id="E5_2" index="2" disallow="pedestrian" speed="13.89" length="23.04" shape="43.07,-0.60 66.11,-0.72"/>
    </edge>
    <edge id="E6" from="J4" to="J6" priority="-1" shape="32.75,1.05 33.14,-26.41">
        <lane id="E6_0" index="0" allow="pedestrian" speed="13.89" length="11.62" width="2.00" shape="28.70,-9.51 28.86,-21.13"/>
        <lane id="E6_1" index="1" disallow="pedestrian" speed="13.89" length="11.62" shape="31.30,-9.47 31.46,-21.09"/>
    </edge>
    <edge id="E7" from="J6" to="J7" priority="-1">
        <lane id="E7_0" index="0" speed="13.89" length="42.11" shape="25.87,-24.72 -16.23,-24.18"/>
    </edge>
    <edge id="E8" from="J7" to="J1" priority="-1">
        <lane id="E8_0" index="0" speed="13.89" length="13.48" shape="-17.81,-22.57 -17.73,-9.09"/>
    </edge>

    <junction id="J0" type="dead_end" x="-61.29" y="0.88" incLanes="-E0_0 -E0_1" intLanes="" shape="-61.29,0.88 -61.35,6.08 -61.29,0.88"/>
    <junction id="J1" type="priority" x="-19.26" y="1.38" incLanes="-E3_0 -E3_1 E8_0 E0_0 E0_1 E0_2 -E1_0" intLanes=":J1_0_0 :J1_1_0 :J1_13_0 :J1_3_0 :J1_4_0 :J1_5_0 :J1_6_0 :J1_7_0 :J1_7_1 :J1_14_0 :J1_10_0 :J1_11_0 :J1_12_0" shape="-14.03,6.55 -14.11,-7.05 -15.23,-7.27 -15.62,-7.56 -15.90,-7.96 -16.07,-8.47 -16.13,-9.10 -22.53,-9.06 -22.74,-7.95 -23.02,-7.57 -23.40,-7.29 -23.90,-7.13 -24.51,-7.08 -24.67,6.52 -23.46,6.75 -23.04,7.04 -22.74,7.43 -22.56,7.93 -22.50,8.54 -16.10,8.58 -15.86,7.45 -15.57,7.06 -15.17,6.78 -14.66,6.61">
        <request index="0"  response="0000000000000" foes="0001000010000" cont="0"/>
        <request index="1"  response="0000000000000" foes="1111000110000" cont="0"/>
        <request index="2"  response="0000111000000" foes="1100111110000" cont="1"/>
        <request index="3"  response="0000110000000" foes="0000110000000" cont="0"/>
        <request index="4"  response="0001110000111" foes="1001110000111" cont="0"/>
        <request index="5"  response="0111110000110" foes="0111110000110" cont="0"/>
        <request index="6"  response="0000000000000" foes="0100000000100" cont="0"/>
        <request index="7"  response="0000000000000" foes="1100000111100" cont="0"/>
        <request index="8"  response="0000000000000" foes="1100000111100" cont="0"/>
        <request index="9"  response="0000000000011" foes="1100000110011" cont="1"/>
        <request index="10" response="0000000000010" foes="0000000100010" cont="0"/>
        <request index="11" response="0001111000110" foes="0001111100110" cont="0"/>
        <request index="12" response="0001110010110" foes="0001110010110" cont="0"/>
    </junction>
    <junction id="J2" type="priority" x="-19.43" y="33.36" incLanes="-E2_0 E1_0" intLanes=":J2_0_0 :J2_1_0" shape="-16.13,36.52 -16.21,30.12 -22.61,30.08 -21.91,33.70 -21.01,34.95 -19.75,35.84 -18.12,36.36">
        <request index="0" response="00" foes="00" cont="0"/>
        <request index="1" response="00" foes="00" cont="0"/>
    </junction>
    <junction id="J3" type="priority" x="32.47" y="32.69" incLanes="E4_0 E4_1 E4_2 E2_0" intLanes=":J3_0_0 :J3_1_0" shape="40.91,27.76 27.31,27.64 27.09,28.71 26.82,29.08 26.45,29.35 25.97,29.52 25.38,29.58 25.47,35.98 30.17,35.70 34.02,34.98 37.02,33.83 39.17,32.24 40.47,30.22">
        <request index="0" response="00" foes="00" cont="0"/>
        <request index="1" response="00" foes="00" cont="0"/>
    </junction>
    <junction id="J4" type="traffic_light" x="32.81" y="1.05" incLanes="-E5_0 -E5_1 -E6_0 -E6_1 E3_0 E3_1 E3_2 -E4_0 -E4_1 :J4_w4_0 :J4_w3_0" intLanes=":J4_0_0 :J4_1_0 :J4_14_0 :J4_3_0 :J4_4_0 :J4_4_1 :J4_6_0 :J4_7_0 :J4_8_0 :J4_8_1 :J4_15_0 :J4_11_0 :J4_12_0 :J4_13_0 :J4_c0_0 :J4_c1_0" shape="43.10,6.20 43.04,-7.40 40.28,-7.61 39.32,-7.88 38.63,-8.27 38.23,-8.77 38.10,-9.38 27.70,-9.52 27.43,-8.30 27.11,-7.87 26.67,-7.56 26.11,-7.37 25.42,-7.30 25.50,6.30 26.61,6.51 27.00,6.79 27.27,7.17 27.44,7.67 27.49,8.28 41.09,8.40 41.32,7.18 41.60,6.75 41.99,6.45 42.49,6.26">
        <request index="0"  response="0000000000000000" foes="0000000000110000" cont="0"/>
        <request index="1"  response="0000000000000000" foes="1011110001110000" cont="0"/>
        <request index="2"  response="0000001110000000" foes="0011001111110000" cont="1"/>
        <request index="3"  response="0000001100000000" foes="0000001100000000" cont="0"/>
        <request index="4"  response="0000011100000111" foes="0010011100000111" cont="0"/>
        <request index="5"  response="0000011100000111" foes="0010011100000111" cont="0"/>
        <request index="6"  response="1001111100000110" foes="1001111100000110" cont="0"/>
        <request index="7"  response="0000000000000000" foes="0101000000000100" cont="0"/>
        <request index="8"  response="0000000000000000" foes="0111000001111100" cont="0"/>
        <request index="9"  response="0000000000000000" foes="0111000001111100" cont="0"/>
        <request index="10" response="0000000000000010" foes="0111000001110010" cont="1"/>
        <request index="11" response="1000000000000010" foes="1000000001000010" cont="0"/>
        <request index="12" response="0000011110000110" foes="0000011111000110" cont="0"/>
        <request index="13" response="0000011100110110" foes="0000011100110110" cont="0"/>
        <request index="14" response="0000011110000000" foes="0000011110000000" cont="0"/>
        <request index="15" response="0000000000000010" foes="0000100001000010" cont="0"/>
    </junction>
    <junction id="J5" type="dead_end" x="66.12" y="0.88" incLanes="E5_0 E5_1 E5_2" intLanes="" shape="66.12,0.88 66.08,-7.52 66.12,0.88"/>
    <junction id="J6" type="priority" x="33.14" y="-26.41" incLanes="-E7_0 E6_0 E6_1" intLanes=":J6_0_0 :J6_1_0" shape="25.81,-29.52 25.89,-23.12 27.00,-22.91 27.39,-22.64 27.66,-22.25 27.82,-21.75 27.86,-21.14 38.26,-21.00 37.95,-23.64 36.93,-25.80 35.21,-27.47 32.78,-28.64 29.65,-29.32">
        <request index="0" response="00" foes="00" cont="0"/>
        <request index="1" response="00" foes="00" cont="0"/>
    </junction>
    <junction id="J7" type="priority" x="-19.43" y="-25.74" incLanes="-E8_0 E7_0" intLanes=":J7_0_0 :J7_1_0" shape="-22.61,-22.54 -16.21,-22.58 -16.29,-28.98 -19.82,-28.23 -21.05,-27.33 -21.93,-26.08 -22.45,-24.49">
        <request index="0" response="00" foes="00" cont="0"/>
        <request index="1" response="00" foes="00" cont="0"/>
    </junction>

    <junction id=":J1_13_0" type="internal" x="-16.62" y="1.64" incLanes=":J1_2_0 E0_1 E0_2" intLanes=":J1_4_0 :J1_5_0 :J1_6_0 :J1_7_0 :J1_7_1 :J1_11_0 :J1_12_0"/>
    <junction id=":J1_14_0" type="internal" x="-21.71" y="0.93" incLanes=":J1_9_0 -E3_1" intLanes=":J1_0_0 :J1_1_0 :J1_4_0 :J1_5_0 :J1_11_0 :J1_12_0"/>
    <junction id=":J4_14_0" type="internal" x="38.22" y="1.92" incLanes=":J4_2_0 E3_1 E3_2" intLanes=":J4_4_0 :J4_4_1 :J4_6_0 :J4_7_0 :J4_8_0 :J4_8_1 :J4_12_0 :J4_13_0"/>
    <junction id=":J4_15_0" type="internal" x="29.49" y="0.11" incLanes=":J4_10_0 -E5_1" intLanes=":J4_0_0 :J4_1_0 :J4_4_0 :J4_4_1 :J4_6_0 :J4_12_0 :J4_13_0 :J4_c0_0"/>

    <connection from="-E1" to="-E0" fromLane="0" toLane="1" via=":J1_10_0" dir="r" state="m"/>
    <connection from="-E1" to="-E8" fromLane="0" toLane="0" via=":J1_11_0" dir="s" state="m"/>
    <connection from="-E1" to="E3" fromLane="0" toLane="2" via=":J1_12_0" dir="l" state="m"/>
    <connection from="-E2" to="-E1" fromLane="0" toLane="0" via=":J2_0_0" dir="l" state="M"/>
    <connection from="-E3" to="E1" fromLane="1" toLane="0" via=":J1_0_0" dir="r" state="M"/>
    <connection from="-E3" to="-E0" fromLane="1" toLane="1" via=":J1_1_0" dir="s" state="M"/>
    <connection from="-E3" to="-E8" fromLane="1" toLane="0" via=":J1_2_0" dir="l" state="m"/>
    <connection from="-E4" to="-E3" fromLane="1" toLane="1" via=":J4_11_0" dir="r" state="m"/>
    <connection from="-E4" to="E6" fromLane="1" toLane="1" via=":J4_12_0" dir="s" state="m"/>
    <connection from="-E4" to="E5" fromLane="1" toLane="2" via=":J4_13_0" dir="l" state="m"/>
    <connection from="-E5" to="E4" fromLane="1" toLane="1" via=":J4_0_0" dir="r" state="M"/>
    <connection from="-E5" to="-E3" fromLane="1" toLane="1" via=":J4_1_0" dir="s" state="M"/>
    <connection from="-E5" to="E6" fromLane="1" toLane="1" via=":J4_2_0" dir="l" state="m"/>
    <connection from="-E6" to="E5" fromLane="1" toLane="1" via=":J4_3_0" dir="r" state="m"/>
    <connection from="-E6" to="E4" fromLane="1" toLane="1" via=":J4_4_0" dir="s" state="m"/>
    <connection from="-E6" to="E4" fromLane="1" toLane="2" via=":J4_4_1" dir="s" state="m"/>
    <connection from="-E6" to="-E3" fromLane="1" toLane="1" via=":J4_6_0" dir="l" state="m"/>
    <connection from="-E7" to="-E6" fromLane="0" toLane="1" via=":J6_0_0" dir="l" state="M"/>
    <connection from="-E8" to="-E7" fromLane="0" toLane="0" via=":J7_0_0" dir="l" state="M"/>
    <connection from="E0" to="-E8" fromLane="1" toLane="0" via=":J1_6_0" dir="r" state="M"/>
    <connection from="E0" to="E3" fromLane="1" toLane="1" via=":J1_7_0" dir="s" state="M"/>
    <connection from="E0" to="E3" fromLane="2" toLane="2" via=":J1_7_1" dir="s" state="M"/>
    <connection from="E0" to="E1" fromLane="2" toLane="0" via=":J1_9_0" dir="l" state="m"/>
    <connection from="E1" to="E2" fromLane="0" toLane="0" via=":J2_1_0" dir="r" state="M"/>
    <connection from="E2" to="-E4" fromLane="0" toLane="1" via=":J3_1_0" dir="r" state="M"/>
    <connection from="E3" to="E6" fromLane="1" toLane="1" via=":J4_7_0" dir="r" state="M"/>
    <connection from="E3" to="E5" fromLane="1" toLane="1" via=":J4_8_0" dir="s" state="M"/>
    <connection from="E3" to="E5" fromLane="2" toLane="2" via=":J4_8_1" dir="s" state="M"/>
    <connection from="E3" to="E4" fromLane="2" toLane="2" via=":J4_10_0" dir="l" state="m"/>
    <connection from="E4" to="-E2" fromLane="1" toLane="0" via=":J3_0_0" dir="l" state="M"/>
    <connection from="E6" to="E7" fromLane="1" toLane="0" via=":J6_1_0" dir="r" state="M"/>
    <connection from="E7" to="E8" fromLane="0" toLane="0" via=":J7_1_0" dir="r" state="M"/>
    <connection from="E8" to="E3" fromLane="0" toLane="1" via=":J1_3_0" dir="r" state="m"/>
    <connection from="E8" to="E1" fromLane="0" toLane="0" via=":J1_4_0" dir="s" state="m"/>
    <connection from="E8" to="-E0" fromLane="0" toLane="1" via=":J1_5_0" dir="l" state="m"/>

    <connection from=":J1_0" to="E1" fromLane="0" toLane="0" dir="r" state="M"/>
    <connection from=":J1_1" to="-E0" fromLane="0" toLane="1" dir="s" state="M"/>
    <connection from=":J1_2" to="-E8" fromLane="0" toLane="0" via=":J1_13_0" dir="l" state="m"/>
    <connection from=":J1_13" to="-E8" fromLane="0" toLane="0" dir="l" state="M"/>
    <connection from=":J1_3" to="E3" fromLane="0" toLane="1" dir="r" state="M"/>
    <connection from=":J1_4" to="E1" fromLane="0" toLane="0" dir="s" state="M"/>
    <connection from=":J1_5" to="-E0" fromLane="0" toLane="1" dir="l" state="M"/>
    <connection from=":J1_6" to="-E8" fromLane="0" toLane="0" dir="r" state="M"/>
    <connection from=":J1_7" to="E3" fromLane="0" toLane="1" dir="s" state="M"/>
    <connection from=":J1_7" to="E3" fromLane="1" toLane="2" dir="s" state="M"/>
    <connection from=":J1_9" to="E1" fromLane="0" toLane="0" via=":J1_14_0" dir="l" state="m"/>
    <connection from=":J1_14" to="E1" fromLane="0" toLane="0" dir="l" state="M"/>
    <connection from=":J1_10" to="-E0" fromLane="0" toLane="1" dir="r" state="M"/>
    <connection from=":J1_11" to="-E8" fromLane="0" toLane="0" dir="s" state="M"/>
    <connection from=":J1_12" to="E3" fromLane="0" toLane="2" dir="l" state="M"/>
    <connection from=":J2_0" to="-E1" fromLane="0" toLane="0" dir="l" state="M"/>
    <connection from=":J2_1" to="E2" fromLane="0" toLane="0" dir="r" state="M"/>
    <connection from=":J3_0" to="-E2" fromLane="0" toLane="0" dir="l" state="M"/>
    <connection from=":J3_1" to="-E4" fromLane="0" toLane="1" dir="r" state="M"/>
    <connection from=":J4_0" to="E4" fromLane="0" toLane="1" dir="r" state="M"/>
    <connection from=":J4_1" to="-E3" fromLane="0" toLane="1" dir="s" state="M"/>
    <connection from=":J4_2" to="E6" fromLane="0" toLane="1" via=":J4_14_0" dir="l" state="m"/>
    <connection from=":J4_14" to="E6" fromLane="0" toLane="1" dir="l" state="M"/>
    <connection from=":J4_3" to="E5" fromLane="0" toLane="1" dir="r" state="M"/>
    <connection from=":J4_4" to="E4" fromLane="0" toLane="1" dir="s" state="M"/>
    <connection from=":J4_4" to="E4" fromLane="1" toLane="2" dir="s" state="M"/>
    <connection from=":J4_6" to="-E3" fromLane="0" toLane="1" dir="l" state="M"/>