<configuration>
    <input>
        <net-file value="trolleyNet.net.xml"/>
        <route-files value="trolleyNet.rou.xml"/>
    </input>
</configuration>