<?xml version='1.0' encoding='UTF-8'?>
<routes xmlns:xsi="http://www.w3.org/2001/XMLSchema-instance" xsi:noNamespaceSchemaLocation="http://sumo.dlr.de/xsd/routes_file.xsd">
    <vType id="fast_pedestrian" vClass="pedestrian" length="1.0" width="1.0" speedFactor="1.0" minGap="0.00" maxSpeed="3.50" />
    <person id="p_0" depart="0.00" type="fast_pedestrian" jmIgnoreFoeProb="1.0" jmIgnoreFoeSpeed="1.0" jmIgnoreJunctionFoeProb="1.0" jmCrossingGap="0.0">
        <personTrip from="-E4" to="E6" />
    </person>
    <person id="p_1" depart="0.00" type="fast_pedestrian" jmIgnoreFoeProb="1.0" jmIgnoreFoeSpeed="1.0" jmIgnoreJunctionFoeProb="1.0" jmCrossingGap="0.0">
        <personTrip from="-E4" to="E6" />
    </person>
    <person id="p_2" depart="0.00" type="fast_pedestrian" jmIgnoreFoeProb="1.0" jmIgnoreFoeSpeed="1.0" jmIgnoreJunctionFoeProb="1.0" jmCrossingGap="0.0">
        <personTrip from="-E4" to="E6" />
    </person>
</routes>