<configuration>
    <input>
        <net-file value="trolleyNet.net.xml"/>
        <route-files value="trolleyNetCar.rou.xml,trolleyNetPed.rou.xml"/>
    </input>
    <time>
        <begin value="0"/>
        <end value="50"/> 
    </time>
</configuration>